                                   MODFLOW 6
                U.S. GEOLOGICAL SURVEY MODULAR HYDROLOGIC MODEL
                   VERSION 6.3.0 release candidate 02/06/2022
                               ***DEVELOP MODE***

   MODFLOW 6 compiled Feb 06 2022 02:35:51 with Intel(R) Fortran Intel(R) 64
   Compiler Classic for applications running on Intel(R) 64, Version 2021.5.0
                             Build 20211109_000000

This software is preliminary or provisional and is subject to 
revision. It is being provided to meet the need for timely best 
science. The software has not received final approval by the U.S. 
Geological Survey (USGS). No warranty, expressed or implied, is made 
by the USGS or the U.S. Government as to the functionality of the 
software and related material nor shall the fact of release 
constitute any such warranty. The software is provided on the 
condition that neither the USGS nor the U.S. Government shall be held 
liable for any damages resulting from the authorized or unauthorized 
use of the software.


As a work of the United States Government, this USGS product is 
in the public domain within the United States. You can copy, 
modify, distribute, and perform the work, even for commercial 
purposes, all without asking permission. Additionally, USGS 
waives copyright and related rights in the work worldwide 
through CC0 1.0 Universal Public Domain Dedication 
(https://creativecommons.org/publicdomain/zero/1.0/).

The following GNU Lesser General Public License (LGPL) libraries
are used in this USGS product:

    SPARSKIT version 2.0
      ilut, luson, and qsplit 
      (https://www-users.cse.umn.edu/~saad/software/SPARSKIT/)

    RCM - Reverse Cuthill McKee Ordering
      (https://people.math.sc.edu/Burkardt/f_src/rcm/rcm.html)

    BLAS - Basic Linear Algebra Subprograms Level 1
      (https://people.math.sc.edu/Burkardt/f_src/blas1_d/blas1_d.html)

    SPARSEKIT - Sparse Matrix Utility Package
      amux, dperm, dvperm, rperm, and cperm
      (https://people.sc.fsu.edu/~jburkardt/f77_src/sparsekit/sparsekit.html)

The following BSD-3 License libraries are used in this USGS product:

    Modern Fortran DAG Library
      Copyright (c) 2018, Jacob Williams
      All rights reserved.
      (https://github.com/jacobwilliams/daglib)

MODFLOW 6 compiler options: /O2 /heap-arrays:0 /fpe:0 /traceback /nologo /fpp
/c /module:.\mod_temp\ /object:.\obj_temp\

System command used to initiate simulation:
mf6.exe

MODFLOW was compiled using uniform precision.

Real Variables
  KIND: 8
  TINY (smallest non-zero value):    2.225074-308
  HUGE (largest value):    1.797693+308
  PRECISION: 15
  BIT SIZE: 64

Integer Variables
  KIND: 4
  HUGE (largest value): 2147483647
  BIT SIZE: 32

Long Integer Variables
  KIND: 8
  HUGE (largest value): 9223372036854775807
  BIT SIZE: 64

Logical Variables
  KIND: 4
  BIT SIZE: 32
 

 OPENED mfsim.nam
 FILE TYPE:NAM   UNIT 1001   STATUS:OLD                 
 FORMAT:FORMATTED              ACCESS:SEQUENTIAL          
 ACTION:READ                


 READING SIMULATION OPTIONS
    SIMULATION WILL CONTINUE EVEN IF THERE IS NONCONVERGENCE.
 END OF SIMULATION OPTIONS

 READING SIMULATION TIMING

 OPENED freyberg6.tdis
 FILE TYPE:TDIS   UNIT 1002   STATUS:OLD                 
 FORMAT:FORMATTED              ACCESS:SEQUENTIAL          
 ACTION:READ                


 TDIS -- TEMPORAL DISCRETIZATION PACKAGE,
 VERSION 1 : 11/13/2014 - INPUT READ FROM UNIT 1002
 PROCESSING TDIS OPTIONS
    SIMULATION TIME UNIT IS DAYS
 END OF TDIS OPTIONS
 PROCESSING TDIS DIMENSIONS
   25 STRESS PERIOD(S) IN SIMULATION
 END OF TDIS DIMENSIONS
 PROCESSING TDIS PERIODDATA


 STRESS PERIOD     LENGTH       TIME STEPS     MULTIPLIER FOR DELT
 ----------------------------------------------------------------------------
        1         1.000000          1                    1.000
        2         31.00000          1                    1.000
        3         29.00000          1                    1.000
        4         31.00000          1                    1.000
        5         30.00000          1                    1.000
        6         31.00000          1                    1.000
        7         30.00000          1                    1.000
        8         31.00000          1                    1.000
        9         31.00000          1                    1.000
       10         30.00000          1                    1.000
       11         31.00000          1                    1.000
       12         30.00000          1                    1.000
       13         31.00000          1                    1.000
       14         31.00000          1                    1.000
       15         28.00000          1                    1.000
       16         31.00000          1                    1.000
       17         30.00000          1                    1.000
       18         31.00000          1                    1.000
       19         30.00000          1                    1.000
       20         31.00000          1                    1.000
       21         31.00000          1                    1.000
       22         30.00000          1                    1.000
       23         31.00000          1                    1.000
       24         30.00000          1                    1.000
       25         31.00000          1                    1.000
 END OF TDIS PERIODDATA
 END OF SIMULATION TIMING

 READING SIMULATION MODELS
    GWF6 model FREYBERG6 will be created as model 1
 END OF SIMULATION MODELS

 READING SIMULATION EXCHANGES
 END OF SIMULATION EXCHANGES

 READING SOLUTIONGROUP

 Creating solution: SLN_1           

 OPENED freyberg6.ims
 FILE TYPE:IMS   UNIT 1015   STATUS:OLD                 
 FORMAT:FORMATTED              ACCESS:SEQUENTIAL          
 ACTION:READ                

 END OF SIMULATION SOLUTIONGROUP

PROCESSING MODEL CONNECTIONS

 IMS -- ITERATIVE MODEL SOLUTION PACKAGE, VERSION 6, 4/28/2017
         INPUT READ FROM UNIT 1015

 PROCESSING IMS OPTIONS
 SIMPLE OPTION:
 DEFAULT SOLVER INPUT VALUES FOR FAST SOLUTIONS
 END OF IMS OPTIONS

 PROCESSING IMS NONLINEAR
 END OF IMS NONLINEAR DATA
 **UNDER-RELAXATION WILL BE USED***
 
 ***IMS LINEAR SOLVER WILL BE USED***

 IMSLINEAR -- UNSTRUCTURED LINEAR SOLUTION PACKAGE, VERSION 8, 04/28/2017

 PROCESSING LINEAR DATA
 END OF LINEAR DATA
 
 An asymmetric matrix will be solved

 OUTER ITERATION CONVERGENCE CRITERION    (DVCLOSE) =    0.100000E-02
 MAXIMUM NUMBER OF OUTER ITERATIONS        (MXITER) = 100
 SOLVER PRINTOUT INDEX                     (IPRIMS) = 1
 NONLINEAR ITERATION METHOD            (NONLINMETH) = 3
 LINEAR SOLUTION METHOD                   (LINMETH) = 1
 UNDER-RELAXATION WEIGHT REDUCTION FACTOR   (THETA) =    0.850000E+00
 UNDER-RELAXATION WEIGHT INCREASE INCREMENT (KAPPA) =    0.100000E-04
 UNDER-RELAXATION PREVIOUS HISTORY FACTOR   (GAMMA) =    0.000000E+00
 UNDER-RELAXATION MOMENTUM TERM         (AMOMENTUM) =    0.100000E+00
 MAXIMUM NUMBER OF BACKTRACKS            (NUMTRACK) = 50
 BACKTRACKING TOLERANCE FACTOR               (BTOL) =    0.110000E+01
 BACKTRACKING REDUCTION FACTOR             (BREDUC) =    0.700000E+00
 BACKTRACKING RESIDUAL LIMIT              (RES_LIM) =    0.100000E+03

       SOLUTION BY THE BICONJUGATE-GRADIENT STABILIZED METHOD
 ------------------------------------------------------------------
 MAXIMUM OF 100 CALLS OF SOLUTION ROUTINE
 MAXIMUM OF 50 INTERNAL ITERATIONS PER CALL TO SOLUTION ROUTINE
 LINEAR ACCELERATION METHOD            = BCGS      
 MATRIX PRECONDITIONING TYPE           = INCOMPLETE LUT      
 MATRIX SCALING APPROACH               = NO SCALING          
 MATRIX REORDERING APPROACH            = RCM ORDERING             
 NUMBER OF ORTHOGONALIZATIONS          = 2
 HEAD CHANGE CRITERION FOR CLOSURE     =    0.10000E-03
 RESIDUAL CHANGE CRITERION FOR CLOSURE =    0.10000E+00
 RESIDUAL CONVERGENCE OPTION           = 0
 RESIDUAL CONVERGENCE NORM             = INFINITY NORM   
 RELAXATION FACTOR                     =    0.00000E+00
 NUMBER OF LEVELS                      =              1
 DROP TOLERANCE                        =    0.10000E-02


 
    Solving:  Stress period:     1    Time step:     1
 
1
                            STRESS PERIOD NO. 1, LENGTH =   1.000000    
                            -----------------------------------------------
                            NUMBER OF TIME STEPS = 1
                            MULTIPLIER FOR DELT =     1.000
                            INITIAL TIME STEP SIZE =   1.000000    



 PSEUDO-TRANSIENT CONTINUATION WILL BE APPLIED TO MODEL 1 ("FREYBERG6") DURING THIS TIME STEP

 SLN_1 OUTER ITERATION SUMMARY
 ----------------------------------------------------------------------------------------------------------------------------------------------------------------
                                OUTER      INNER  BACKTRACK  BACKTRACK        INCOMING        OUTGOING                    STEP   MAXIMUM CHANGE MODEL-(CELLID) OR
 OUTER ITERATION STEP       ITERATION  ITERATION       FLAG ITERATIONS        RESIDUAL        RESIDUAL  MAXIMUM CHANGE SUCCESS             MODEL-PACKAGE-(NUMBER)
 ----------------------------------------------------------------------------------------------------------------------------------------------------------------
 Backtracking                       1                     0          0       4747121.7       4747121.7                       *                                   
 Model                              1         49                                                             912.11488                            1_GWF-(3,40,16)
 Backtracking                       2                     0          0       190263.19       190263.19                       *                                   
 Model                              2         50                                                             188.03637                            1_GWF-(1,40,16)
 Backtracking                       3                     0          0       55443.249       55443.249                       *                                   
 Model                              3         50                                                             8.9990880                            1_GWF-(3,40,15)
 Backtracking                       4                     0          0       10225.540       10225.540                       *                                   
 Model                              4         50                                                            -1.4490049                             1_GWF-(1,20,3)
 Backtracking                       5                     0          0       3987.2773       3987.2773                       *                                   
 Model                              5         50                                                           -0.29988996                            1_GWF-(1,38,16)
 Backtracking                       6                     0          0       613.99221       613.99221                       *                                   
 Model                              6         50                                                       -8.83748062E-02                             1_GWF-(1,20,3)
 Backtracking                       7                     0          0       327.25434       327.25434                       *                                   
 Model                              7         50                                                       -2.68712198E-02                            1_GWF-(1,38,16)
 Backtracking                       8                     0          0       61.870262       61.870262                       *                                   
 Model                              8         22                                                       -8.23150762E-03                            1_GWF-(1,38,16)
 Backtracking                       9                     0          0       11.545166       11.545166                       *                                   
 Model                              9         15                                                       -3.03613224E-03                            1_GWF-(1,38,16)
 Backtracking                      10                     0          0       6.6523847       6.6523847                       *                                   
 Model                             10         19                                                       -3.59679102E-03                             1_GWF-(1,29,1)
 Backtracking                      11                     0          1       16.283163       13.217840                                                           
 Model                             11          4                                                        4.63066591E-04       *                     1_GWF-(2,23,4)
 ----------------------------------------------------------------------------------------------------------------------------------------------------------------


 11 CALLS TO NUMERICAL SOLUTION IN TIME STEP 1 STRESS PERIOD 1
 409 TOTAL ITERATIONS
 
    Solving:  Stress period:     2    Time step:     1
 
1
                            STRESS PERIOD NO. 2, LENGTH =   31.00000    
                            -----------------------------------------------
                            NUMBER OF TIME STEPS = 1
                            MULTIPLIER FOR DELT =     1.000
                            INITIAL TIME STEP SIZE =   31.00000    

 SLN_1 OUTER ITERATION SUMMARY
 ----------------------------------------------------------------------------------------------------------------------------------------------------------------
                                OUTER      INNER  BACKTRACK  BACKTRACK        INCOMING        OUTGOING                    STEP   MAXIMUM CHANGE MODEL-(CELLID) OR
 OUTER ITERATION STEP       ITERATION  ITERATION       FLAG ITERATIONS        RESIDUAL        RESIDUAL  MAXIMUM CHANGE SUCCESS             MODEL-PACKAGE-(NUMBER)
 ----------------------------------------------------------------------------------------------------------------------------------------------------------------
 Backtracking                       1                     0          0       468.33107       468.33107                       *                                   
 Model                              1         50                                                            0.35957636                             1_GWF-(1,22,7)
 Backtracking                       2                     0          0       179.99916       179.99916                       *                                   
 Model                              2         42                                                        4.50773258E-02                            1_GWF-(1,37,16)
 Backtracking                       3                     0          0       22.536882       22.536882                       *                                   
 Model                              3         22                                                        6.73035366E-03                            1_GWF-(1,38,16)
 Backtracking                       4                     0          0       1.8927271       1.8927271                       *                                   
 Model                              4         14                                                        8.79182616E-04       *                    1_GWF-(1,39,16)
 ----------------------------------------------------------------------------------------------------------------------------------------------------------------


 4 CALLS TO NUMERICAL SOLUTION IN TIME STEP 1 STRESS PERIOD 2
 128 TOTAL ITERATIONS
 
    Solving:  Stress period:     3    Time step:     1
 
1
                            STRESS PERIOD NO. 3, LENGTH =   29.00000    
                            -----------------------------------------------
                            NUMBER OF TIME STEPS = 1
                            MULTIPLIER FOR DELT =     1.000
                            INITIAL TIME STEP SIZE =   29.00000    

 SLN_1 OUTER ITERATION SUMMARY
 ----------------------------------------------------------------------------------------------------------------------------------------------------------------
                                OUTER      INNER  BACKTRACK  BACKTRACK        INCOMING        OUTGOING                    STEP   MAXIMUM CHANGE MODEL-(CELLID) OR
 OUTER ITERATION STEP       ITERATION  ITERATION       FLAG ITERATIONS        RESIDUAL        RESIDUAL  MAXIMUM CHANGE SUCCESS             MODEL-PACKAGE-(NUMBER)
 ----------------------------------------------------------------------------------------------------------------------------------------------------------------
 Backtracking                       1                     0          0       103.42006       103.42006                       *                                   
 Model                              1         50                                                           -0.11985274                              1_GWF-(1,1,1)
 Backtracking                       2                     0          0       13.545964       13.545964                       *                                   
 Model                              2         17                                                       -3.27846504E-03                            1_GWF-(1,35,16)
 Backtracking                       3                     0          0       7.2125349       7.2125349                       *                                   
 Model                              3          7                                                       -4.06495357E-04       *                    1_GWF-(1,38,16)
 ----------------------------------------------------------------------------------------------------------------------------------------------------------------


 3 CALLS TO NUMERICAL SOLUTION IN TIME STEP 1 STRESS PERIOD 3
 74 TOTAL ITERATIONS
 
    Solving:  Stress period:     4    Time step:     1
 
1
                            STRESS PERIOD NO. 4, LENGTH =   31.00000    
                            -----------------------------------------------
                            NUMBER OF TIME STEPS = 1
                            MULTIPLIER FOR DELT =     1.000
                            INITIAL TIME STEP SIZE =   31.00000    

 SLN_1 OUTER ITERATION SUMMARY
 ----------------------------------------------------------------------------------------------------------------------------------------------------------------
                                OUTER      INNER  BACKTRACK  BACKTRACK        INCOMING        OUTGOING                    STEP   MAXIMUM CHANGE MODEL-(CELLID) OR
 OUTER ITERATION STEP       ITERATION  ITERATION       FLAG ITERATIONS        RESIDUAL        RESIDUAL  MAXIMUM CHANGE SUCCESS             MODEL-PACKAGE-(NUMBER)
 ----------------------------------------------------------------------------------------------------------------------------------------------------------------
 Backtracking                       1                     0          0       183.17518       183.17518                       *                                   
 Model                              1         50                                                            0.22489005                              1_GWF-(1,1,1)
 Backtracking                       2                     0          0       44.028894       44.028894                       *                                   
 Model                              2         36                                                        1.08984923E-02                            1_GWF-(1,29,16)
 Backtracking                       3                     0          0       9.2548051       9.2548051                       *                                   
 Model                              3         13                                                        1.83925366E-03                            1_GWF-(1,38,16)
 Backtracking                       4                     0          0       1.2439808       1.2439808                       *                                   
 Model                              4          8                                                        5.31367696E-04       *                    1_GWF-(1,30,20)
 ----------------------------------------------------------------------------------------------------------------------------------------------------------------


 4 CALLS TO NUMERICAL SOLUTION IN TIME STEP 1 STRESS PERIOD 4
 107 TOTAL ITERATIONS
 
    Solving:  Stress period:     5    Time step:     1
 
1
                            STRESS PERIOD NO. 5, LENGTH =   30.00000    
                            -----------------------------------------------
                            NUMBER OF TIME STEPS = 1
                            MULTIPLIER FOR DELT =     1.000
                            INITIAL TIME STEP SIZE =   30.00000    

 SLN_1 OUTER ITERATION SUMMARY
 ----------------------------------------------------------------------------------------------------------------------------------------------------------------
                                OUTER      INNER  BACKTRACK  BACKTRACK        INCOMING        OUTGOING                    STEP   MAXIMUM CHANGE MODEL-(CELLID) OR
 OUTER ITERATION STEP       ITERATION  ITERATION       FLAG ITERATIONS        RESIDUAL        RESIDUAL  MAXIMUM CHANGE SUCCESS             MODEL-PACKAGE-(NUMBER)
 ----------------------------------------------------------------------------------------------------------------------------------------------------------------
 Backtracking                       1                     0          0       217.60567       217.60567                       *                                   
 Model                              1         50                                                            0.24940794                             1_GWF-(1,20,1)
 Backtracking                       2                     0          0       24.725853       24.725853                       *                                   
 Model                              2         22                                                        6.47184492E-03                            1_GWF-(1,37,16)
 Backtracking                       3                     0          0       2.8018862       2.8018862                       *                                   
 Model                              3         15                                                        1.14825133E-03                              1_GWF-(2,6,2)
 Backtracking                       4                     0          0       2.8529994       2.8529994                       *                                   
 Model                              4          3                                                       -1.28976008E-04       *                     1_GWF-(1,25,6)
 ----------------------------------------------------------------------------------------------------------------------------------------------------------------


 4 CALLS TO NUMERICAL SOLUTION IN TIME STEP 1 STRESS PERIOD 5
 90 TOTAL ITERATIONS
 
    Solving:  Stress period:     6    Time step:     1
 
1
                            STRESS PERIOD NO. 6, LENGTH =   31.00000    
                            -----------------------------------------------
                            NUMBER OF TIME STEPS = 1
                            MULTIPLIER FOR DELT =     1.000
                            INITIAL TIME STEP SIZE =   31.00000    

 SLN_1 OUTER ITERATION SUMMARY
 ----------------------------------------------------------------------------------------------------------------------------------------------------------------
                                OUTER      INNER  BACKTRACK  BACKTRACK        INCOMING        OUTGOING                    STEP   MAXIMUM CHANGE MODEL-(CELLID) OR
 OUTER ITERATION STEP       ITERATION  ITERATION       FLAG ITERATIONS        RESIDUAL        RESIDUAL  MAXIMUM CHANGE SUCCESS             MODEL-PACKAGE-(NUMBER)
 ----------------------------------------------------------------------------------------------------------------------------------------------------------------
 Backtracking                       1                     0          0       407.91263       407.91263                       *                                   
 Model                              1         50                                                           -0.25185363                            1_GWF-(1,27,11)
 Backtracking                       2                     0          0       91.304248       91.304248                       *                                   
 Model                              2         39                                                       -2.29241909E-02                            1_GWF-(1,37,16)
 Backtracking                       3                     0          0       12.004868       12.004868                       *                                   
 Model                              3         14                                                       -3.53235456E-03                            1_GWF-(1,38,16)
 Backtracking                       4                     0          0       1.1254219       1.1254219                       *                                   
 Model                              4         11                                                       -1.02678000E-03                            1_GWF-(1,30,20)
 Backtracking                       5                     4          0       2.0114701       2.0114701                       *                                   
 Model                              5          2                                                       -1.46260173E-04       *                    1_GWF-(1,22,20)
 ----------------------------------------------------------------------------------------------------------------------------------------------------------------


 5 CALLS TO NUMERICAL SOLUTION IN TIME STEP 1 STRESS PERIOD 6
 116 TOTAL ITERATIONS
 
    Solving:  Stress period:     7    Time step:     1
 
1
                            STRESS PERIOD NO. 7, LENGTH =   30.00000    
                            -----------------------------------------------
                            NUMBER OF TIME STEPS = 1
                            MULTIPLIER FOR DELT =     1.000
                            INITIAL TIME STEP SIZE =   30.00000    

 SLN_1 OUTER ITERATION SUMMARY
 ----------------------------------------------------------------------------------------------------------------------------------------------------------------
                                OUTER      INNER  BACKTRACK  BACKTRACK        INCOMING        OUTGOING                    STEP   MAXIMUM CHANGE MODEL-(CELLID) OR
 OUTER ITERATION STEP       ITERATION  ITERATION       FLAG ITERATIONS        RESIDUAL        RESIDUAL  MAXIMUM CHANGE SUCCESS             MODEL-PACKAGE-(NUMBER)
 ----------------------------------------------------------------------------------------------------------------------------------------------------------------
 Backtracking                       1                     0          0       201.36713       201.36713                       *                                   
 Model                              1         50                                                           -0.22782900                             1_GWF-(1,10,1)
 Backtracking                       2                     0          0       58.337130       58.337130                       *                                   
 Model                              2         31                                                       -1.38468973E-02                            1_GWF-(1,37,16)
 Backtracking                       3                     0          0       8.8024978       8.8024978                       *                                   
 Model                              3         15                                                       -2.72420728E-03                            1_GWF-(1,38,16)
 Backtracking                       4                     0          0       2.4144857       2.4144857                       *                                   
 Model                              4          2                                                       -1.85043200E-04       *                    1_GWF-(1,37,16)
 ----------------------------------------------------------------------------------------------------------------------------------------------------------------


 4 CALLS TO NUMERICAL SOLUTION IN TIME STEP 1 STRESS PERIOD 7
 98 TOTAL ITERATIONS
 
    Solving:  Stress period:     8    Time step:     1
 
1
                            STRESS PERIOD NO. 8, LENGTH =   31.00000    
                            -----------------------------------------------
                            NUMBER OF TIME STEPS = 1
                            MULTIPLIER FOR DELT =     1.000
                            INITIAL TIME STEP SIZE =   31.00000    

 SLN_1 OUTER ITERATION SUMMARY
 ----------------------------------------------------------------------------------------------------------------------------------------------------------------
                                OUTER      INNER  BACKTRACK  BACKTRACK        INCOMING        OUTGOING                    STEP   MAXIMUM CHANGE MODEL-(CELLID) OR
 OUTER ITERATION STEP       ITERATION  ITERATION       FLAG ITERATIONS        RESIDUAL        RESIDUAL  MAXIMUM CHANGE SUCCESS             MODEL-PACKAGE-(NUMBER)
 ----------------------------------------------------------------------------------------------------------------------------------------------------------------
 Backtracking                       1                     0          0       257.51775       257.51775                       *                                   
 Model                              1         50                                                           -0.18174998                             1_GWF-(3,30,7)
 Backtracking                       2                     0          0       79.133160       79.133160                       *                                   
 Model                              2         39                                                       -2.23727236E-02                              1_GWF-(3,3,2)
 Backtracking                       3                     0          0       17.825723       17.825723                       *                                   
 Model                              3         16                                                       -4.71154980E-03                            1_GWF-(1,38,16)
 Backtracking                       4                     0          0       5.4414016       5.4414016                       *                                   
 Model                              4          4                                                       -6.46282581E-04       *                    1_GWF-(1,38,16)
 ----------------------------------------------------------------------------------------------------------------------------------------------------------------


 4 CALLS TO NUMERICAL SOLUTION IN TIME STEP 1 STRESS PERIOD 8
 109 TOTAL ITERATIONS
 
    Solving:  Stress period:     9    Time step:     1
 
1
                            STRESS PERIOD NO. 9, LENGTH =   31.00000    
                            -----------------------------------------------
                            NUMBER OF TIME STEPS = 1
                            MULTIPLIER FOR DELT =     1.000
                            INITIAL TIME STEP SIZE =   31.00000    

 SLN_1 OUTER ITERATION SUMMARY
 ----------------------------------------------------------------------------------------------------------------------------------------------------------------
                                OUTER      INNER  BACKTRACK  BACKTRACK        INCOMING        OUTGOING                    STEP   MAXIMUM CHANGE MODEL-(CELLID) OR
 OUTER ITERATION STEP       ITERATION  ITERATION       FLAG ITERATIONS        RESIDUAL        RESIDUAL  MAXIMUM CHANGE SUCCESS             MODEL-PACKAGE-(NUMBER)
 ----------------------------------------------------------------------------------------------------------------------------------------------------------------
 Backtracking                       1                     0          0       176.98081       176.98081                       *                                   
 Model                              1         50                                                           -0.10461444                             1_GWF-(1,15,3)
 Backtracking                       2                     0          0       13.924098       13.924098                       *                                   
 Model                              2         18                                                       -3.38614208E-03                            1_GWF-(1,29,16)
 Backtracking                       3                     0          0       9.1366064       9.1366064                       *                                   
 Model                              3         10                                                       -1.31384941E-03                            1_GWF-(1,38,16)
 Backtracking                       4                     0          0       2.7146692       2.7146692                       *                                   
 Model                              4          2                                                       -2.15981455E-04       *                    1_GWF-(1,38,16)
 ----------------------------------------------------------------------------------------------------------------------------------------------------------------


 4 CALLS TO NUMERICAL SOLUTION IN TIME STEP 1 STRESS PERIOD 9
 80 TOTAL ITERATIONS
 
    Solving:  Stress period:    10    Time step:     1
 
1
                            STRESS PERIOD NO. 10, LENGTH =   30.00000    
                            -----------------------------------------------
                            NUMBER OF TIME STEPS = 1
                            MULTIPLIER FOR DELT =     1.000
                            INITIAL TIME STEP SIZE =   30.00000    

 SLN_1 OUTER ITERATION SUMMARY
 ----------------------------------------------------------------------------------------------------------------------------------------------------------------
                                OUTER      INNER  BACKTRACK  BACKTRACK        INCOMING        OUTGOING                    STEP   MAXIMUM CHANGE MODEL-(CELLID) OR
 OUTER ITERATION STEP       ITERATION  ITERATION       FLAG ITERATIONS        RESIDUAL        RESIDUAL  MAXIMUM CHANGE SUCCESS             MODEL-PACKAGE-(NUMBER)
 ----------------------------------------------------------------------------------------------------------------------------------------------------------------
 Backtracking                       1                     0          0       366.07033       366.07033                       *                                   
 Model                              1         50                                                            0.14052189                             1_GWF-(1,24,1)
 Backtracking                       2                     0          0       58.768573       58.768573                       *                                   
 Model                              2         33                                                        1.41665540E-02                            1_GWF-(1,35,16)
 Backtracking                       3                     0          0       12.598735       12.598735                       *                                   
 Model                              3         14                                                        3.28826929E-03                            1_GWF-(1,38,16)
 Backtracking                       4                     0          0       2.0326500       2.0326500                       *                                   
 Model                              4          2                                                        2.59652311E-04       *                    1_GWF-(1,38,16)
 ----------------------------------------------------------------------------------------------------------------------------------------------------------------


 4 CALLS TO NUMERICAL SOLUTION IN TIME STEP 1 STRESS PERIOD 10
 99 TOTAL ITERATIONS
 
    Solving:  Stress period:    11    Time step:     1
 
1
                            STRESS PERIOD NO. 11, LENGTH =   31.00000    
                            -----------------------------------------------
                            NUMBER OF TIME STEPS = 1
                            MULTIPLIER FOR DELT =     1.000
                            INITIAL TIME STEP SIZE =   31.00000    

 SLN_1 OUTER ITERATION SUMMARY
 ----------------------------------------------------------------------------------------------------------------------------------------------------------------
                                OUTER      INNER  BACKTRACK  BACKTRACK        INCOMING        OUTGOING                    STEP   MAXIMUM CHANGE MODEL-(CELLID) OR
 OUTER ITERATION STEP       ITERATION  ITERATION       FLAG ITERATIONS        RESIDUAL        RESIDUAL  MAXIMUM CHANGE SUCCESS             MODEL-PACKAGE-(NUMBER)
 ----------------------------------------------------------------------------------------------------------------------------------------------------------------
 Backtracking                       1                     0          0       219.39501       219.39501                       *                                   
 Model                              1         50                                                           -0.14871936                             1_GWF-(1,23,1)
 Backtracking                       2                     0          0       44.276959       44.276959                       *                                   
 Model                              2         24                                                       -1.00706082E-02                            1_GWF-(1,35,16)
 Backtracking                       3                     0          0       10.517075       10.517075                       *                                   
 Model                              3         18                                                       -2.82584655E-03                            1_GWF-(1,38,16)
 Backtracking                       4                     0          0       5.9505673       5.9505673                       *                                   
 Model                              4          6                                                       -4.21255398E-04       *                    1_GWF-(1,38,16)
 ----------------------------------------------------------------------------------------------------------------------------------------------------------------


 4 CALLS TO NUMERICAL SOLUTION IN TIME STEP 1 STRESS PERIOD 11
 98 TOTAL ITERATIONS
 
    Solving:  Stress period:    12    Time step:     1
 
1
                            STRESS PERIOD NO. 12, LENGTH =   30.00000    
                            -----------------------------------------------
                            NUMBER OF TIME STEPS = 1
                            MULTIPLIER FOR DELT =     1.000
                            INITIAL TIME STEP SIZE =   30.00000    

 SLN_1 OUTER ITERATION SUMMARY
 ----------------------------------------------------------------------------------------------------------------------------------------------------------------
                                OUTER      INNER  BACKTRACK  BACKTRACK        INCOMING        OUTGOING                    STEP   MAXIMUM CHANGE MODEL-(CELLID) OR
 OUTER ITERATION STEP       ITERATION  ITERATION       FLAG ITERATIONS        RESIDUAL        RESIDUAL  MAXIMUM CHANGE SUCCESS             MODEL-PACKAGE-(NUMBER)
 ----------------------------------------------------------------------------------------------------------------------------------------------------------------
 Backtracking                       1                     0          0       110.87494       110.87494                       *                                   
 Model                              1         41                                                        5.77571299E-02                             1_GWF-(1,21,1)
 Backtracking                       2                     0          0       5.8338335       5.8338335                       *                                   
 Model                              2         18                                                        2.26161547E-03                              1_GWF-(3,9,1)
 Backtracking                       3                     1          1       7.8299039       6.1807634                                                           
 Model                              3          5                                                        5.60037119E-04       *                    1_GWF-(1,37,16)
 ----------------------------------------------------------------------------------------------------------------------------------------------------------------


 3 CALLS TO NUMERICAL SOLUTION IN TIME STEP 1 STRESS PERIOD 12
 64 TOTAL ITERATIONS
 
    Solving:  Stress period:    13    Time step:     1
 
1
                            STRESS PERIOD NO. 13, LENGTH =   31.00000    
                            -----------------------------------------------
                            NUMBER OF TIME STEPS = 1
                            MULTIPLIER FOR DELT =     1.000
                            INITIAL TIME STEP SIZE =   31.00000    

 SLN_1 OUTER ITERATION SUMMARY
 ----------------------------------------------------------------------------------------------------------------------------------------------------------------
                                OUTER      INNER  BACKTRACK  BACKTRACK        INCOMING        OUTGOING                    STEP   MAXIMUM CHANGE MODEL-(CELLID) OR
 OUTER ITERATION STEP       ITERATION  ITERATION       FLAG ITERATIONS        RESIDUAL        RESIDUAL  MAXIMUM CHANGE SUCCESS             MODEL-PACKAGE-(NUMBER)
 ----------------------------------------------------------------------------------------------------------------------------------------------------------------
 Backtracking                       1                     0          0       376.45430       376.45430                       *                                   
 Model                              1         50                                                            0.24421343                            1_GWF-(1,12,14)
 Backtracking                       2                     0          0       124.05322       124.05322                       *                                   
 Model                              2         41                                                        3.04409664E-02                            1_GWF-(1,35,16)
 Backtracking                       3                     0          0       18.237824       18.237824                       *                                   
 Model                              3         18                                                        5.35776904E-03                            1_GWF-(1,38,16)
 Backtracking                       4                     0          0       1.7330235       1.7330235                       *                                   
 Model                              4         14                                                        9.55178007E-04       *                     1_GWF-(2,34,3)
 ----------------------------------------------------------------------------------------------------------------------------------------------------------------


 4 CALLS TO NUMERICAL SOLUTION IN TIME STEP 1 STRESS PERIOD 13
 123 TOTAL ITERATIONS
 
    Solving:  Stress period:    14    Time step:     1
 
1
                            STRESS PERIOD NO. 14, LENGTH =   31.00000    
                            -----------------------------------------------
                            NUMBER OF TIME STEPS = 1
                            MULTIPLIER FOR DELT =     1.000
                            INITIAL TIME STEP SIZE =   31.00000    

 SLN_1 OUTER ITERATION SUMMARY
 ----------------------------------------------------------------------------------------------------------------------------------------------------------------
                                OUTER      INNER  BACKTRACK  BACKTRACK        INCOMING        OUTGOING                    STEP   MAXIMUM CHANGE MODEL-(CELLID) OR
 OUTER ITERATION STEP       ITERATION  ITERATION       FLAG ITERATIONS        RESIDUAL        RESIDUAL  MAXIMUM CHANGE SUCCESS             MODEL-PACKAGE-(NUMBER)
 ----------------------------------------------------------------------------------------------------------------------------------------------------------------
 Backtracking                       1                     0          0       195.73793       195.73793                       *                                   
 Model                              1         50                                                            0.25151216                             1_GWF-(1,26,3)
 Backtracking                       2                     0          0       63.615382       63.615382                       *                                   
 Model                              2         40                                                        1.67292450E-02                            1_GWF-(1,37,16)
 Backtracking                       3                     0          0       7.0793799       7.0793799                       *                                   
 Model                              3         10                                                        2.01860279E-03                            1_GWF-(1,38,16)
 Backtracking                       4                     0          0      0.61426963      0.61426963                       *                                   
 Model                              4          9                                                        7.00608565E-04       *                    1_GWF-(1,33,20)
 ----------------------------------------------------------------------------------------------------------------------------------------------------------------


 4 CALLS TO NUMERICAL SOLUTION IN TIME STEP 1 STRESS PERIOD 14
 109 TOTAL ITERATIONS
 
    Solving:  Stress period:    15    Time step:     1
 
1
                            STRESS PERIOD NO. 15, LENGTH =   28.00000    
                            -----------------------------------------------
                            NUMBER OF TIME STEPS = 1
                            MULTIPLIER FOR DELT =     1.000
                            INITIAL TIME STEP SIZE =   28.00000    

 SLN_1 OUTER ITERATION SUMMARY
 ----------------------------------------------------------------------------------------------------------------------------------------------------------------
                                OUTER      INNER  BACKTRACK  BACKTRACK        INCOMING        OUTGOING                    STEP   MAXIMUM CHANGE MODEL-(CELLID) OR
 OUTER ITERATION STEP       ITERATION  ITERATION       FLAG ITERATIONS        RESIDUAL        RESIDUAL  MAXIMUM CHANGE SUCCESS             MODEL-PACKAGE-(NUMBER)
 ----------------------------------------------------------------------------------------------------------------------------------------------------------------
 Backtracking                       1                     0          0       111.44540       111.44540                       *                                   
 Model                              1         49                                                       -8.09610438E-02                             1_GWF-(1,29,1)
 Backtracking                       2                     0          0       22.911208       22.911208                       *                                   
 Model                              2         20                                                       -5.33054252E-03                            1_GWF-(1,37,16)
 Backtracking                       3                     0          0       2.6615462       2.6615462                       *                                   
 Model                              3         14                                                       -1.29751605E-03                             1_GWF-(2,18,9)
 Backtracking                       4                     4          0       3.3423317       3.3423317                       *                                   
 Model                              4          3                                                       -1.59695712E-04       *                     1_GWF-(1,28,7)
 ----------------------------------------------------------------------------------------------------------------------------------------------------------------


 4 CALLS TO NUMERICAL SOLUTION IN TIME STEP 1 STRESS PERIOD 15
 86 TOTAL ITERATIONS
 
    Solving:  Stress period:    16    Time step:     1
 
1
                            STRESS PERIOD NO. 16, LENGTH =   31.00000    
                            -----------------------------------------------
                            NUMBER OF TIME STEPS = 1
                            MULTIPLIER FOR DELT =     1.000
                            INITIAL TIME STEP SIZE =   31.00000    

 SLN_1 OUTER ITERATION SUMMARY
 ----------------------------------------------------------------------------------------------------------------------------------------------------------------
                                OUTER      INNER  BACKTRACK  BACKTRACK        INCOMING        OUTGOING                    STEP   MAXIMUM CHANGE MODEL-(CELLID) OR
 OUTER ITERATION STEP       ITERATION  ITERATION       FLAG ITERATIONS        RESIDUAL        RESIDUAL  MAXIMUM CHANGE SUCCESS             MODEL-PACKAGE-(NUMBER)
 ----------------------------------------------------------------------------------------------------------------------------------------------------------------
 Backtracking                       1                     0          0       254.91526       254.91526                       *                                   
 Model                              1         50                                                            0.12806635                             1_GWF-(1,6,20)
 Backtracking                       2                     0          0       24.594960       24.594960                       *                                   
 Model                              2         29                                                        7.60281015E-03                            1_GWF-(1,25,16)
 Backtracking                       3                     0          0       16.804986       16.804986                       *                                   
 Model                              3         11                                                        1.57297860E-03                            1_GWF-(1,35,16)
 Backtracking                       4                     0          0       2.7514461       2.7514461                       *                                   
 Model                              4          4                                                        3.15877434E-04       *                    1_GWF-(1,35,16)
 ----------------------------------------------------------------------------------------------------------------------------------------------------------------


 4 CALLS TO NUMERICAL SOLUTION IN TIME STEP 1 STRESS PERIOD 16
 94 TOTAL ITERATIONS
 
    Solving:  Stress period:    17    Time step:     1
 
1
                            STRESS PERIOD NO. 17, LENGTH =   30.00000    
                            -----------------------------------------------
                            NUMBER OF TIME STEPS = 1
                            MULTIPLIER FOR DELT =     1.000
                            INITIAL TIME STEP SIZE =   30.00000    

 SLN_1 OUTER ITERATION SUMMARY
 ----------------------------------------------------------------------------------------------------------------------------------------------------------------
                                OUTER      INNER  BACKTRACK  BACKTRACK        INCOMING        OUTGOING                    STEP   MAXIMUM CHANGE MODEL-(CELLID) OR
 OUTER ITERATION STEP       ITERATION  ITERATION       FLAG ITERATIONS        RESIDUAL        RESIDUAL  MAXIMUM CHANGE SUCCESS             MODEL-PACKAGE-(NUMBER)
 ----------------------------------------------------------------------------------------------------------------------------------------------------------------
 Backtracking                       1                     0          0       198.92915       198.92915                       *                                   
 Model                              1         50                                                            0.17452108                             1_GWF-(1,13,1)
 Backtracking                       2                     0          0       4.0504944       4.0504944                       *                                   
 Model                              2         16                                                        3.23838173E-03                              1_GWF-(3,6,2)
 Backtracking                       3                     1          1       5.7634107       4.3183214                                                           
 Model                              3          3                                                       -2.65926837E-04       *                    1_GWF-(1,29,16)
 ----------------------------------------------------------------------------------------------------------------------------------------------------------------


 3 CALLS TO NUMERICAL SOLUTION IN TIME STEP 1 STRESS PERIOD 17
 69 TOTAL ITERATIONS
 
    Solving:  Stress period:    18    Time step:     1
 
1
                            STRESS PERIOD NO. 18, LENGTH =   31.00000    
                            -----------------------------------------------
                            NUMBER OF TIME STEPS = 1
                            MULTIPLIER FOR DELT =     1.000
                            INITIAL TIME STEP SIZE =   31.00000    

 SLN_1 OUTER ITERATION SUMMARY
 ----------------------------------------------------------------------------------------------------------------------------------------------------------------
                                OUTER      INNER  BACKTRACK  BACKTRACK        INCOMING        OUTGOING                    STEP   MAXIMUM CHANGE MODEL-(CELLID) OR
 OUTER ITERATION STEP       ITERATION  ITERATION       FLAG ITERATIONS        RESIDUAL        RESIDUAL  MAXIMUM CHANGE SUCCESS             MODEL-PACKAGE-(NUMBER)
 ----------------------------------------------------------------------------------------------------------------------------------------------------------------
 Backtracking                       1                     0          0       308.49299       308.49299                       *                                   
 Model                              1         50                                                           -0.21340426                            1_GWF-(3,27,11)
 Backtracking                       2                     0          0       89.775609       89.775609                       *                                   
 Model                              2         33                                                       -2.21538889E-02                            1_GWF-(1,37,16)
 Backtracking                       3                     0          0       12.987461       12.987461                       *                                   
 Model                              3         22                                                       -4.11458407E-03                            1_GWF-(1,38,16)
 Backtracking                       4                     0          0       1.8597060       1.8597060                       *                                   
 Model                              4          4                                                       -3.84486629E-04       *                    1_GWF-(1,38,16)
 ----------------------------------------------------------------------------------------------------------------------------------------------------------------


 4 CALLS TO NUMERICAL SOLUTION IN TIME STEP 1 STRESS PERIOD 18
 109 TOTAL ITERATIONS
 
    Solving:  Stress period:    19    Time step:     1
 
1
                            STRESS PERIOD NO. 19, LENGTH =   30.00000    
                            -----------------------------------------------
                            NUMBER OF TIME STEPS = 1
                            MULTIPLIER FOR DELT =     1.000
                            INITIAL TIME STEP SIZE =   30.00000    

 SLN_1 OUTER ITERATION SUMMARY
 ----------------------------------------------------------------------------------------------------------------------------------------------------------------
                                OUTER      INNER  BACKTRACK  BACKTRACK        INCOMING        OUTGOING                    STEP   MAXIMUM CHANGE MODEL-(CELLID) OR
 OUTER ITERATION STEP       ITERATION  ITERATION       FLAG ITERATIONS        RESIDUAL        RESIDUAL  MAXIMUM CHANGE SUCCESS             MODEL-PACKAGE-(NUMBER)
 ----------------------------------------------------------------------------------------------------------------------------------------------------------------
 Backtracking                       1                     0          0       240.80009       240.80009                       *                                   
 Model                              1         50                                                       -7.57040875E-02                             1_GWF-(1,16,4)
 Backtracking                       2                     0          0       5.6888475       5.6888475                       *                                   
 Model                              2         11                                                        1.81173689E-03                            1_GWF-(1,38,16)
 Backtracking                       3                     0          0       1.1302493       1.1302493                       *                                   
 Model                              3          4                                                       -2.05172395E-04       *                    1_GWF-(1,38,18)
 ----------------------------------------------------------------------------------------------------------------------------------------------------------------


 3 CALLS TO NUMERICAL SOLUTION IN TIME STEP 1 STRESS PERIOD 19
 65 TOTAL ITERATIONS
 
    Solving:  Stress period:    20    Time step:     1
 
1
                            STRESS PERIOD NO. 20, LENGTH =   31.00000    
                            -----------------------------------------------
                            NUMBER OF TIME STEPS = 1
                            MULTIPLIER FOR DELT =     1.000
                            INITIAL TIME STEP SIZE =   31.00000    

 SLN_1 OUTER ITERATION SUMMARY
 ----------------------------------------------------------------------------------------------------------------------------------------------------------------
                                OUTER      INNER  BACKTRACK  BACKTRACK        INCOMING        OUTGOING                    STEP   MAXIMUM CHANGE MODEL-(CELLID) OR
 OUTER ITERATION STEP       ITERATION  ITERATION       FLAG ITERATIONS        RESIDUAL        RESIDUAL  MAXIMUM CHANGE SUCCESS             MODEL-PACKAGE-(NUMBER)
 ----------------------------------------------------------------------------------------------------------------------------------------------------------------
 Backtracking                       1                     0          0       269.40196       269.40196                       *                                   
 Model                              1         50                                                           -0.18030746                              1_GWF-(1,4,3)
 Backtracking                       2                     0          0       74.027250       74.027250                       *                                   
 Model                              2         37                                                       -1.80791176E-02                            1_GWF-(1,37,16)
 Backtracking                       3                     0          0       14.286414       14.286414                       *                                   
 Model                              3         14                                                       -3.92566239E-03                            1_GWF-(1,38,16)
 Backtracking                       4                     0          0       1.8027673       1.8027673                       *                                   
 Model                              4          9                                                       -1.25937746E-03                            1_GWF-(1,30,20)
 Backtracking                       5                     0          0      0.82010216      0.82010216                       *                                   
 Model                              5          4                                                       -1.54793559E-04       *                    1_GWF-(1,38,12)
 ----------------------------------------------------------------------------------------------------------------------------------------------------------------


 5 CALLS TO NUMERICAL SOLUTION IN TIME STEP 1 STRESS PERIOD 20
 114 TOTAL ITERATIONS
 
    Solving:  Stress period:    21    Time step:     1
 
1
                            STRESS PERIOD NO. 21, LENGTH =   31.00000    
                            -----------------------------------------------
                            NUMBER OF TIME STEPS = 1
                            MULTIPLIER FOR DELT =     1.000
                            INITIAL TIME STEP SIZE =   31.00000    

 SLN_1 OUTER ITERATION SUMMARY
 ----------------------------------------------------------------------------------------------------------------------------------------------------------------
                                OUTER      INNER  BACKTRACK  BACKTRACK        INCOMING        OUTGOING                    STEP   MAXIMUM CHANGE MODEL-(CELLID) OR
 OUTER ITERATION STEP       ITERATION  ITERATION       FLAG ITERATIONS        RESIDUAL        RESIDUAL  MAXIMUM CHANGE SUCCESS             MODEL-PACKAGE-(NUMBER)
 ----------------------------------------------------------------------------------------------------------------------------------------------------------------
 Backtracking                       1                     0          0       123.39197       123.39197                       *                                   
 Model                              1         50                                                           -0.12280001                              1_GWF-(1,9,1)
 Backtracking                       2                     0          0       52.649311       52.649311                       *                                   
 Model                              2         25                                                       -1.22431007E-02                            1_GWF-(1,35,16)
 Backtracking                       3                     0          0       12.925486       12.925486                       *                                   
 Model                              3         14                                                       -3.78910739E-03                            1_GWF-(1,38,16)
 Backtracking                       4                     0          0       3.3785311       3.3785311                       *                                   
 Model                              4         11                                                       -1.31562417E-03                            1_GWF-(1,25,19)
 Backtracking                       5                     0          0       2.7357473       2.7357473                       *                                   
 Model                              5          6                                                       -3.12351478E-04       *                     1_GWF-(2,28,1)
 ----------------------------------------------------------------------------------------------------------------------------------------------------------------


 5 CALLS TO NUMERICAL SOLUTION IN TIME STEP 1 STRESS PERIOD 21
 106 TOTAL ITERATIONS
 
    Solving:  Stress period:    22    Time step:     1
 
1
                            STRESS PERIOD NO. 22, LENGTH =   30.00000    
                            -----------------------------------------------
                            NUMBER OF TIME STEPS = 1
                            MULTIPLIER FOR DELT =     1.000
                            INITIAL TIME STEP SIZE =   30.00000    

 SLN_1 OUTER ITERATION SUMMARY
 ----------------------------------------------------------------------------------------------------------------------------------------------------------------
                                OUTER      INNER  BACKTRACK  BACKTRACK        INCOMING        OUTGOING                    STEP   MAXIMUM CHANGE MODEL-(CELLID) OR
 OUTER ITERATION STEP       ITERATION  ITERATION       FLAG ITERATIONS        RESIDUAL        RESIDUAL  MAXIMUM CHANGE SUCCESS             MODEL-PACKAGE-(NUMBER)
 ----------------------------------------------------------------------------------------------------------------------------------------------------------------
 Backtracking                       1                     0          0       196.92031       196.92031                       *                                   
 Model                              1         50                                                       -8.83090167E-02                             1_GWF-(1,14,4)
 Backtracking                       2                     0          0       30.995644       30.995644                       *                                   
 Model                              2         30                                                       -8.47133222E-03                            1_GWF-(1,25,16)
 Backtracking                       3                     0          0       14.370174       14.370174                       *                                   
 Model                              3         18                                                       -6.19275014E-03                            1_GWF-(1,21,16)
 Backtracking                       4                     0          0       4.5293686       4.5293686                       *                                   
 Model                              4         15                                                       -2.62295198E-03                            1_GWF-(1,19,16)
 Backtracking                       5                     0          0       2.8841913       2.8841913                       *                                   
 Model                              5          4                                                       -1.06551640E-03                            1_GWF-(1,18,16)
 Backtracking                       6                     0          0      0.45432483      0.45432483                       *                                   
 Model                              6          6                                                       -4.16904095E-04       *                    1_GWF-(1,18,17)
 ----------------------------------------------------------------------------------------------------------------------------------------------------------------


 6 CALLS TO NUMERICAL SOLUTION IN TIME STEP 1 STRESS PERIOD 22
 123 TOTAL ITERATIONS
 
    Solving:  Stress period:    23    Time step:     1
 
1
                            STRESS PERIOD NO. 23, LENGTH =   31.00000    
                            -----------------------------------------------
                            NUMBER OF TIME STEPS = 1
                            MULTIPLIER FOR DELT =     1.000
                            INITIAL TIME STEP SIZE =   31.00000    

 SLN_1 OUTER ITERATION SUMMARY
 ----------------------------------------------------------------------------------------------------------------------------------------------------------------
                                OUTER      INNER  BACKTRACK  BACKTRACK        INCOMING        OUTGOING                    STEP   MAXIMUM CHANGE MODEL-(CELLID) OR
 OUTER ITERATION STEP       ITERATION  ITERATION       FLAG ITERATIONS        RESIDUAL        RESIDUAL  MAXIMUM CHANGE SUCCESS             MODEL-PACKAGE-(NUMBER)
 ----------------------------------------------------------------------------------------------------------------------------------------------------------------
 Backtracking                       1                     0          0       259.28361       259.28361                       *                                   
 Model                              1         50                                                            0.20092335                             1_GWF-(1,29,1)
 Backtracking                       2                     0          0       130.52759       130.52759                       *                                   
 Model                              2         29                                                       -2.73623928E-02                            1_GWF-(1,25,16)
 Backtracking                       3                     0          0       15.230157       15.230157                       *                                   
 Model                              3         12                                                       -4.17399564E-03                            1_GWF-(1,25,16)
 Backtracking                       4                     0          0       2.9096574       2.9096574                       *                                   
 Model                              4          3                                                       -5.95249355E-04       *                    1_GWF-(1,25,16)
 ----------------------------------------------------------------------------------------------------------------------------------------------------------------


 4 CALLS TO NUMERICAL SOLUTION IN TIME STEP 1 STRESS PERIOD 23
 94 TOTAL ITERATIONS
 
    Solving:  Stress period:    24    Time step:     1
 
1
                            STRESS PERIOD NO. 24, LENGTH =   30.00000    
                            -----------------------------------------------
                            NUMBER OF TIME STEPS = 1
                            MULTIPLIER FOR DELT =     1.000
                            INITIAL TIME STEP SIZE =   30.00000    

 SLN_1 OUTER ITERATION SUMMARY
 ----------------------------------------------------------------------------------------------------------------------------------------------------------------
                                OUTER      INNER  BACKTRACK  BACKTRACK        INCOMING        OUTGOING                    STEP   MAXIMUM CHANGE MODEL-(CELLID) OR
 OUTER ITERATION STEP       ITERATION  ITERATION       FLAG ITERATIONS        RESIDUAL        RESIDUAL  MAXIMUM CHANGE SUCCESS             MODEL-PACKAGE-(NUMBER)
 ----------------------------------------------------------------------------------------------------------------------------------------------------------------
 Backtracking                       1                     0          0       237.72120       237.72120                       *                                   
 Model                              1         50                                                            0.19041974                             1_GWF-(1,12,4)
 Backtracking                       2                     0          0       19.284046       19.284046                       *                                   
 Model                              2         21                                                       -1.07687725E-02                             1_GWF-(2,15,1)
 Backtracking                       3                     0          0       10.568275       10.568275                       *                                   
 Model                              3         10                                                       -9.98899970E-04       *                     1_GWF-(2,14,1)
 ----------------------------------------------------------------------------------------------------------------------------------------------------------------


 3 CALLS TO NUMERICAL SOLUTION IN TIME STEP 1 STRESS PERIOD 24
 81 TOTAL ITERATIONS
 
    Solving:  Stress period:    25    Time step:     1
 
1
                            STRESS PERIOD NO. 25, LENGTH =   31.00000    
                            -----------------------------------------------
                            NUMBER OF TIME STEPS = 1
                            MULTIPLIER FOR DELT =     1.000
                            INITIAL TIME STEP SIZE =   31.00000    

 SLN_1 OUTER ITERATION SUMMARY
 ----------------------------------------------------------------------------------------------------------------------------------------------------------------
                                OUTER      INNER  BACKTRACK  BACKTRACK        INCOMING        OUTGOING                    STEP   MAXIMUM CHANGE MODEL-(CELLID) OR
 OUTER ITERATION STEP       ITERATION  ITERATION       FLAG ITERATIONS        RESIDUAL        RESIDUAL  MAXIMUM CHANGE SUCCESS             MODEL-PACKAGE-(NUMBER)
 ----------------------------------------------------------------------------------------------------------------------------------------------------------------
 Backtracking                       1                     0          0       328.26937       328.26937                       *                                   
 Model                              1         50                                                            0.22044881                            1_GWF-(1,15,11)
 Backtracking                       2                     0          0       108.04630       108.04630                       *                                   
 Model                              2         39                                                        2.64486788E-02                            1_GWF-(1,35,16)
 Backtracking                       3                     0          0       14.247868       14.247868                       *                                   
 Model                              3         14                                                        4.18605917E-03                            1_GWF-(1,38,16)
 Backtracking                       4                     0          0       1.3017377       1.3017377                       *                                   
 Model                              4          7                                                        9.46818808E-04       *                    1_GWF-(2,29,20)
 ----------------------------------------------------------------------------------------------------------------------------------------------------------------


 4 CALLS TO NUMERICAL SOLUTION IN TIME STEP 1 STRESS PERIOD 25
 110 TOTAL ITERATIONS


 Solution SLN_1 summary
 ----------------------------------------------------------------------
 Total formulate time:  .3125000000000000E-01 seconds
 Total solution time:   .2656250000000000 seconds


 MEMORY MANAGER TOTAL STORAGE BY DATA TYPE, IN MEGABYTES
 -------------------------------
                    ALLOCATED   
 DATA TYPE           MEMORY     
 -------------------------------
 Character        5.73300000E-03
 Logical          4.40000000E-05
 Integer          0.61834400    
 Real             1.1723440     
 -------------------------------
 Total            1.7964650     
 -------------------------------


 
 Run end date and time (yyyy/mm/dd hh:mm:ss): 2022/03/21 16:04:41
 Elapsed run time:  1.021 Seconds
 Normal termination of simulation.
