                                   MODFLOW 6
                U.S. GEOLOGICAL SURVEY MODULAR HYDROLOGIC MODEL
                   VERSION 6.3.0 release candidate 02/06/2022
                               ***DEVELOP MODE***

   MODFLOW 6 compiled Feb 06 2022 02:35:51 with Intel(R) Fortran Intel(R) 64
   Compiler Classic for applications running on Intel(R) 64, Version 2021.5.0
                             Build 20211109_000000

This software is preliminary or provisional and is subject to 
revision. It is being provided to meet the need for timely best 
science. The software has not received final approval by the U.S. 
Geological Survey (USGS). No warranty, expressed or implied, is made 
by the USGS or the U.S. Government as to the functionality of the 
software and related material nor shall the fact of release 
constitute any such warranty. The software is provided on the 
condition that neither the USGS nor the U.S. Government shall be held 
liable for any damages resulting from the authorized or unauthorized 
use of the software.


As a work of the United States Government, this USGS product is 
in the public domain within the United States. You can copy, 
modify, distribute, and perform the work, even for commercial 
purposes, all without asking permission. Additionally, USGS 
waives copyright and related rights in the work worldwide 
through CC0 1.0 Universal Public Domain Dedication 
(https://creativecommons.org/publicdomain/zero/1.0/).

The following GNU Lesser General Public License (LGPL) libraries
are used in this USGS product:

    SPARSKIT version 2.0
      ilut, luson, and qsplit 
      (https://www-users.cse.umn.edu/~saad/software/SPARSKIT/)

    RCM - Reverse Cuthill McKee Ordering
      (https://people.math.sc.edu/Burkardt/f_src/rcm/rcm.html)

    BLAS - Basic Linear Algebra Subprograms Level 1
      (https://people.math.sc.edu/Burkardt/f_src/blas1_d/blas1_d.html)

    SPARSEKIT - Sparse Matrix Utility Package
      amux, dperm, dvperm, rperm, and cperm
      (https://people.sc.fsu.edu/~jburkardt/f77_src/sparsekit/sparsekit.html)

The following BSD-3 License libraries are used in this USGS product:

    Modern Fortran DAG Library
      Copyright (c) 2018, Jacob Williams
      All rights reserved.
      (https://github.com/jacobwilliams/daglib)

MODFLOW 6 compiler options: /O2 /heap-arrays:0 /fpe:0 /traceback /nologo /fpp
/c /module:.\mod_temp\ /object:.\obj_temp\

System command used to initiate simulation:
mf6.exe

MODFLOW was compiled using uniform precision.

Real Variables
  KIND: 8
  TINY (smallest non-zero value):    2.225074-308
  HUGE (largest value):    1.797693+308
  PRECISION: 15
  BIT SIZE: 64

Integer Variables
  KIND: 4
  HUGE (largest value): 2147483647
  BIT SIZE: 32

Long Integer Variables
  KIND: 8
  HUGE (largest value): 9223372036854775807
  BIT SIZE: 64

Logical Variables
  KIND: 4
  BIT SIZE: 32
 

 OPENED mfsim.nam
 FILE TYPE:NAM   UNIT 1001   STATUS:OLD                 
 FORMAT:FORMATTED              ACCESS:SEQUENTIAL          
 ACTION:READ                


 READING SIMULATION OPTIONS
    SIMULATION WILL CONTINUE EVEN IF THERE IS NONCONVERGENCE.
 END OF SIMULATION OPTIONS

 READING SIMULATION TIMING

 OPENED freyberg6.tdis
 FILE TYPE:TDIS   UNIT 1002   STATUS:OLD                 
 FORMAT:FORMATTED              ACCESS:SEQUENTIAL          
 ACTION:READ                


 TDIS -- TEMPORAL DISCRETIZATION PACKAGE,
 VERSION 1 : 11/13/2014 - INPUT READ FROM UNIT 1002
 PROCESSING TDIS OPTIONS
    SIMULATION TIME UNIT IS DAYS
 END OF TDIS OPTIONS
 PROCESSING TDIS DIMENSIONS
   25 STRESS PERIOD(S) IN SIMULATION
 END OF TDIS DIMENSIONS
 PROCESSING TDIS PERIODDATA


 STRESS PERIOD     LENGTH       TIME STEPS     MULTIPLIER FOR DELT
 ----------------------------------------------------------------------------
        1         1.000000          1                    1.000
        2         31.00000          1                    1.000
        3         29.00000          1                    1.000
        4         31.00000          1                    1.000
        5         30.00000          1                    1.000
        6         31.00000          1                    1.000
        7         30.00000          1                    1.000
        8         31.00000          1                    1.000
        9         31.00000          1                    1.000
       10         30.00000          1                    1.000
       11         31.00000          1                    1.000
       12         30.00000          1                    1.000
       13         31.00000          1                    1.000
       14         31.00000          1                    1.000
       15         28.00000          1                    1.000
       16         31.00000          1                    1.000
       17         30.00000          1                    1.000
       18         31.00000          1                    1.000
       19         30.00000          1                    1.000
       20         31.00000          1                    1.000
       21         31.00000          1                    1.000
       22         30.00000          1                    1.000
       23         31.00000          1                    1.000
       24         30.00000          1                    1.000
       25         31.00000          1                    1.000
 END OF TDIS PERIODDATA
 END OF SIMULATION TIMING

 READING SIMULATION MODELS
    GWF6 model FREYBERG6 will be created as model 1
 END OF SIMULATION MODELS

 READING SIMULATION EXCHANGES
 END OF SIMULATION EXCHANGES

 READING SOLUTIONGROUP

 Creating solution: SLN_1           

 OPENED freyberg6.ims
 FILE TYPE:IMS   UNIT 1015   STATUS:OLD                 
 FORMAT:FORMATTED              ACCESS:SEQUENTIAL          
 ACTION:READ                

 END OF SIMULATION SOLUTIONGROUP

PROCESSING MODEL CONNECTIONS

 IMS -- ITERATIVE MODEL SOLUTION PACKAGE, VERSION 6, 4/28/2017
         INPUT READ FROM UNIT 1015

 PROCESSING IMS OPTIONS
 SIMPLE OPTION:
 DEFAULT SOLVER INPUT VALUES FOR FAST SOLUTIONS
 END OF IMS OPTIONS

 PROCESSING IMS NONLINEAR
 END OF IMS NONLINEAR DATA
 **UNDER-RELAXATION WILL BE USED***
 
 ***IMS LINEAR SOLVER WILL BE USED***

 IMSLINEAR -- UNSTRUCTURED LINEAR SOLUTION PACKAGE, VERSION 8, 04/28/2017

 PROCESSING LINEAR DATA
 END OF LINEAR DATA
 
 An asymmetric matrix will be solved

 OUTER ITERATION CONVERGENCE CRITERION    (DVCLOSE) =    0.100000E-02
 MAXIMUM NUMBER OF OUTER ITERATIONS        (MXITER) = 100
 SOLVER PRINTOUT INDEX                     (IPRIMS) = 1
 NONLINEAR ITERATION METHOD            (NONLINMETH) = 3
 LINEAR SOLUTION METHOD                   (LINMETH) = 1
 UNDER-RELAXATION WEIGHT REDUCTION FACTOR   (THETA) =    0.850000E+00
 UNDER-RELAXATION WEIGHT INCREASE INCREMENT (KAPPA) =    0.100000E-04
 UNDER-RELAXATION PREVIOUS HISTORY FACTOR   (GAMMA) =    0.000000E+00
 UNDER-RELAXATION MOMENTUM TERM         (AMOMENTUM) =    0.100000E+00
 MAXIMUM NUMBER OF BACKTRACKS            (NUMTRACK) = 50
 BACKTRACKING TOLERANCE FACTOR               (BTOL) =    0.110000E+01
 BACKTRACKING REDUCTION FACTOR             (BREDUC) =    0.700000E+00
 BACKTRACKING RESIDUAL LIMIT              (RES_LIM) =    0.100000E+03

       SOLUTION BY THE BICONJUGATE-GRADIENT STABILIZED METHOD
 ------------------------------------------------------------------
 MAXIMUM OF 100 CALLS OF SOLUTION ROUTINE
 MAXIMUM OF 50 INTERNAL ITERATIONS PER CALL TO SOLUTION ROUTINE
 LINEAR ACCELERATION METHOD            = BCGS      
 MATRIX PRECONDITIONING TYPE           = INCOMPLETE LUT      
 MATRIX SCALING APPROACH               = NO SCALING          
 MATRIX REORDERING APPROACH            = RCM ORDERING             
 NUMBER OF ORTHOGONALIZATIONS          = 2
 HEAD CHANGE CRITERION FOR CLOSURE     =    0.10000E-03
 RESIDUAL CHANGE CRITERION FOR CLOSURE =    0.10000E+00
 RESIDUAL CONVERGENCE OPTION           = 0
 RESIDUAL CONVERGENCE NORM             = INFINITY NORM   
 RELAXATION FACTOR                     =    0.00000E+00
 NUMBER OF LEVELS                      =              1
 DROP TOLERANCE                        =    0.10000E-02


 
    Solving:  Stress period:     1    Time step:     1
 
1
                            STRESS PERIOD NO. 1, LENGTH =   1.000000    
                            -----------------------------------------------
                            NUMBER OF TIME STEPS = 1
                            MULTIPLIER FOR DELT =     1.000
                            INITIAL TIME STEP SIZE =   1.000000    



 PSEUDO-TRANSIENT CONTINUATION WILL BE APPLIED TO MODEL 1 ("FREYBERG6") DURING THIS TIME STEP

 SLN_1 OUTER ITERATION SUMMARY
 ----------------------------------------------------------------------------------------------------------------------------------------------------------------
                                OUTER      INNER  BACKTRACK  BACKTRACK        INCOMING        OUTGOING                    STEP   MAXIMUM CHANGE MODEL-(CELLID) OR
 OUTER ITERATION STEP       ITERATION  ITERATION       FLAG ITERATIONS        RESIDUAL        RESIDUAL  MAXIMUM CHANGE SUCCESS             MODEL-PACKAGE-(NUMBER)
 ----------------------------------------------------------------------------------------------------------------------------------------------------------------
 Backtracking                       1                     0          0       22401907.       22401907.                       *                                   
 Model                              1         19                                                            -73.270496                            1_GWF-(3,35,13)
 Backtracking                       2                     0          0       12025471.       12025471.                       *                                   
 Model                              2         23                                                            -107.18842                             1_GWF-(1,30,7)
 Backtracking                       3                     0          0       10132119.       10132119.                       *                                   
 Model                              3         22                                                            -107.18895                             1_GWF-(1,30,7)
 Backtracking                       4                     0          0       8591442.6       8591442.6                       *                                   
 Model                              4         25                                                            -105.33676                             1_GWF-(1,30,7)
 Backtracking                       5                     0          0       7241786.3       7241786.3                       *                                   
 Model                              5         33                                                            -102.22172                             1_GWF-(1,30,7)
 Backtracking                       6                     0          0       5981523.4       5981523.4                       *                                   
 Model                              6         32                                                            -97.069244                             1_GWF-(1,30,7)
 Backtracking                       7                     0          0       5022683.8       5022683.8                       *                                   
 Model                              7         34                                                            -89.265151                             1_GWF-(1,30,7)
 Backtracking                       8                     0          0       4484259.4       4484259.4                       *                                   
 Model                              8         36                                                            -77.299368                             1_GWF-(1,30,7)
 Backtracking                       9                     0          0       4465451.4       4465451.4                       *                                   
 Model                              9         40                                                            -61.582022                             1_GWF-(1,30,7)
 Backtracking                      10                     0          0       4659911.3       4659911.3                       *                                   
 Model                             10         48                                                            -48.411552                             1_GWF-(1,30,7)
 Backtracking                      11                     0          0       4834200.2       4834200.2                       *                                   
 Model                             11         31                                                            -39.389821                             1_GWF-(1,30,7)
 Backtracking                      12                     0          0       5004266.0       5004266.0                       *                                   
 Model                             12         34                                                            -32.882966                             1_GWF-(1,30,7)
 Backtracking                      13                     0          0       5136562.3       5136562.3                       *                                   
 Model                             13         31                                                            -28.210714                             1_GWF-(1,30,7)
 Backtracking                      14                     0          0       5255860.4       5255860.4                       *                                   
 Model                             14         32                                                            -24.656930                             1_GWF-(1,30,7)
 Backtracking                      15                     0          0       5351021.8       5351021.8                       *                                   
 Model                             15         32                                                            -21.935328                             1_GWF-(1,30,7)
 Backtracking                      16                     0          0       5433975.1       5433975.1                       *                                   
 Model                             16         32                                                            -19.772045                             1_GWF-(1,30,7)
 Backtracking                      17                     0          0       5501272.9       5501272.9                       *                                   
 Model                             17         24                                                            -18.035785                             1_GWF-(1,30,7)
 Backtracking                      18                     0          0       5559689.6       5559689.6                       *                                   
 Model                             18         28                                                            -16.770348                            1_GWF-(1,10,17)
 Backtracking                      19                     0          0       5608258.2       5608258.2                       *                                   
 Model                             19         28                                                            -15.749979                            1_GWF-(1,10,17)
 Backtracking                      20                     0          0       5649963.9       5649963.9                       *                                   
 Model                             20         26                                                            -15.139107                            1_GWF-(1,11,16)
 Backtracking                      21                     0          0       5686108.9       5686108.9                       *                                   
 Model                             21         23                                                            -14.622586                            1_GWF-(1,11,16)
 Backtracking                      22                     0          0       5716882.6       5716882.6                       *                                   
 Model                             22         23                                                            -14.140376                            1_GWF-(1,11,16)
 Backtracking                      23                     0          0       5745291.2       5745291.2                       *                                   
 Model                             23         26                                                            -13.684566                            1_GWF-(1,11,16)
 Backtracking                      24                     0          0       5768647.2       5768647.2                       *                                   
 Model                             24         31                                                            -13.260728                            1_GWF-(1,11,16)
 Backtracking                      25                     0          0       5790777.1       5790777.1                       *                                   
 Model                             25         27                                                            -12.858963                            1_GWF-(1,11,16)
 Backtracking                      26                     0          0       5809373.6       5809373.6                       *                                   
 Model                             26         26                                                            -12.483415                            1_GWF-(1,11,16)
 Backtracking                      27                     0          0       5826738.7       5826738.7                       *                                   
 Model                             27         28                                                            -12.127959                            1_GWF-(1,11,16)
 Backtracking                      28                     0          0       5841681.3       5841681.3                       *                                   
 Model                             28         36                                                            -11.794027                            1_GWF-(1,11,16)
 Backtracking                      29                     0          0       5856149.1       5856149.1                       *                                   
 Model                             29         27                                                            -11.476659                            1_GWF-(1,11,16)
 Backtracking                      30                     0          0       5868779.9       5868779.9                       *                                   
 Model                             30         27                                                            -11.177592                            1_GWF-(1,11,16)
 Backtracking                      31                     0          0       5881066.4       5881066.4                       *                                   
 Model                             31         24                                                            -10.893048                            1_GWF-(1,11,16)
 Backtracking                      32                     0          0       5891754.6       5891754.6                       *                                   
 Model                             32         32                                                            -10.624484                            1_GWF-(1,11,16)
 Backtracking                      33                     0          0       5902378.5       5902378.5                       *                                   
 Model                             33         29                                                            -10.368304                            1_GWF-(1,11,16)
 Backtracking                      34                     0          0       5911732.9       5911732.9                       *                                   
 Model                             34         29                                                            -10.125877                            1_GWF-(1,11,16)
 Backtracking                      35                     0          0       5921187.3       5921187.3                       *                                   
 Model                             35         26                                                            -9.8941419                            1_GWF-(1,11,16)
 Backtracking                      36                     0          0       5929710.7       5929710.7                       *                                   
 Model                             36         26                                                            -9.6741822                            1_GWF-(1,11,16)
 Backtracking                      37                     0          0       5938307.3       5938307.3                       *                                   
 Model                             37         37                                                            -9.4637402                            1_GWF-(1,11,16)
 Backtracking                      38                     0          0       5946200.7       5946200.7                       *                                   
 Model                             38         31                                                            -9.2634951                            1_GWF-(1,11,16)
 Backtracking                      39                     0          0       5954143.5       5954143.5                       *                                   
 Model                             39         38                                                            -9.0717370                            1_GWF-(1,11,16)
 Backtracking                      40                     0          0       5961207.2       5961207.2                       *                                   
 Model                             40         36                                                            -8.8893730                            1_GWF-(1,11,16)
 Backtracking                      41                     0          0       5968690.8       5968690.8                       *                                   
 Model                             41         37                                                            -8.7140004                            1_GWF-(1,11,16)
 Backtracking                      42                     0          0       5975392.5       5975392.5                       *                                   
 Model                             42         40                                                            -8.5469548                            1_GWF-(1,11,16)
 Backtracking                      43                     0          0       5982388.6       5982388.6                       *                                   
 Model                             43         38                                                            -8.3862841                            1_GWF-(1,11,16)
 Backtracking                      44                     0          0       5988752.2       5988752.2                       *                                   
 Model                             44         28                                                            -8.2329176                            1_GWF-(1,11,16)
 Backtracking                      45                     0          0       5995346.3       5995346.3                       *                                   
 Model                             45         30                                                            -8.0853109                            1_GWF-(1,11,16)
 Backtracking                      46                     0          0       6001439.0       6001439.0                       *                                   
 Model                             46         35                                                            -7.9441274                            1_GWF-(1,11,16)
 Backtracking                      47                     0          0       6007691.6       6007691.6                       *                                   
 Model                             47         34                                                            -7.8081790                            1_GWF-(1,11,16)
 Backtracking                      48                     0          0       6013533.6       6013533.6                       *                                   
 Model                             48         39                                                            -7.6779220                            1_GWF-(1,11,16)
 Backtracking                      49                     0          0       6019246.4       6019246.4                       *                                   
 Model                             49         40                                                            -7.5527142                            1_GWF-(1,11,16)
 Backtracking                      50                     0          0       6024812.7       6024812.7                       *                                   
 Model                             50         38                                                            -7.4323226                            1_GWF-(1,11,16)
 Backtracking                      51                     0          0       6030311.8       6030311.8                       *                                   
 Model                             51         39                                                            -7.3164133                            1_GWF-(1,11,16)
 Backtracking                      52                     0          0       6035618.8       6035618.8                       *                                   
 Model                             52         40                                                            -7.2049143                            1_GWF-(1,11,16)
 Backtracking                      53                     0          0       6040862.3       6040862.3                       *                                   
 Model                             53         45                                                            -7.0974603                            1_GWF-(1,11,16)
 Backtracking                      54                     0          0       6045924.4       6045924.4                       *                                   
 Model                             54         42                                                            -6.9939918                            1_GWF-(1,11,16)
 Backtracking                      55                     0          0       6050920.2       6050920.2                       *                                   
 Model                             55         44                                                            -6.8941893                            1_GWF-(1,11,16)
 Backtracking                      56                     0          0       6055753.9       6055753.9                       *                                   
 Model                             56         32                                                            -6.7979861                            1_GWF-(1,11,16)
 Backtracking                      57                     0          0       6060513.1       6060513.1                       *                                   
 Model                             57         39                                                            -6.7051188                            1_GWF-(1,11,16)
 Backtracking                      58                     0          0       6065126.6       6065126.6                       *                                   
 Model                             58         36                                                            -6.6155105                            1_GWF-(1,11,16)
 Backtracking                      59                     0          0       6069658.9       6069658.9                       *                                   
 Model                             59         40                                                            -6.5289430                            1_GWF-(1,11,16)
 Backtracking                      60                     0          0       6074067.8       6074067.8                       *                                   
 Model                             60         44                                                            -6.4562010                            1_GWF-(1,13,16)
 Backtracking                      61                     0          0       6078365.0       6078365.0                       *                                   
 Model                             61         44                                                            -6.3993010                            1_GWF-(1,13,16)
 Backtracking                      62                     0          0       6082544.7       6082544.7                       *                                   
 Model                             62         36                                                            -6.3439669                            1_GWF-(1,13,16)
 Backtracking                      63                     0          0       6086623.0       6086623.0                       *                                   
 Model                             63         39                                                            -6.2901335                            1_GWF-(1,13,16)
 Backtracking                      64                     0          0       6090590.4       6090590.4                       *                                   
 Model                             64         32                                                            -6.2377592                            1_GWF-(1,13,16)
 Backtracking                      65                     0          0       6094459.8       6094459.8                       *                                   
 Model                             65         32                                                            -6.1867859                            1_GWF-(1,13,16)
 Backtracking                      66                     0          0       6098224.0       6098224.0                       *                                   
 Model                             66         37                                                            -6.1371730                            1_GWF-(1,13,16)
 Backtracking                      67                     0          0       6101891.3       6101891.3                       *                                   
 Model                             67         41                                                            -6.0888696                            1_GWF-(1,13,16)
 Backtracking                      68                     0          0       6105460.4       6105460.4                       *                                   
 Model                             68         38                                                            -6.0418335                            1_GWF-(1,13,16)
 Backtracking                      69                     0          0       6108936.4       6108936.4                       *                                   
 Model                             69         43                                                            -5.9960190                            1_GWF-(1,13,16)
 Backtracking                      70                     0          0       6112318.3       6112318.3                       *                                   
 Model                             70         47                                                            -5.9513872                            1_GWF-(1,13,16)
 Backtracking                      71                     0          0       6115578.8       6115578.8                       *                                   
 Model                             71         34                                                            -5.9079225                            1_GWF-(1,13,16)
 Backtracking                      72                     0          0       6118776.7       6118776.7                       *                                   
 Model                             72         38                                                            -5.8655402                            1_GWF-(1,13,16)
 Backtracking                      73                     0          0       6121856.1       6121856.1                       *                                   
 Model                             73         37                                                            -5.8242481                            1_GWF-(1,13,16)
 Backtracking                      74                     0          0       6124870.7       6124870.7                       *                                   
 Model                             74         43                                                            -5.7839703                            1_GWF-(1,13,16)
 Backtracking                      75                     0          0       6127775.8       6127775.8                       *                                   
 Model                             75         37                                                            -5.7447076                            1_GWF-(1,13,16)
 Backtracking                      76                     0          0       6130613.7       6130613.7                       *                                   
 Model                             76         44                                                            -5.7063966                            1_GWF-(1,13,16)
 Backtracking                      77                     0          0       6133346.1       6133346.1                       *                                   
 Model                             77         34                                                            -5.6732642                            1_GWF-(3,11,20)
 Backtracking                      78                     0          0       6136014.8       6136014.8                       *                                   
 Model                             78         50                                                            -5.6528593                            1_GWF-(3,11,20)
 Backtracking                      79                     0          0       6138588.5       6138588.5                       *                                   
 Model                             79         32                                                            -5.6325213                            1_GWF-(3,11,20)
 Backtracking                      80                     0          0       6141107.8       6141107.8                       *                                   
 Model                             80         36                                                            -5.6122297                            1_GWF-(3,11,20)
 Backtracking                      81                     0          0       6143521.4       6143521.4                       *                                   
 Model                             81         36                                                            -5.5920343                            1_GWF-(3,11,20)
 Backtracking                      82                     0          0       6145848.8       6145848.8                       *                                   
 Model                             82         39                                                            -5.5719321                            1_GWF-(3,11,20)
 Backtracking                      83                     0          0       6148099.9       6148099.9                       *                                   
 Model                             83         43                                                            -5.5519185                            1_GWF-(3,11,20)
 Backtracking                      84                     0          0       6150281.0       6150281.0                       *                                   
 Model                             84         33                                                            -5.5319976                            1_GWF-(3,11,20)
 Backtracking                      85                     0          0       6152389.4       6152389.4                       *                                   
 Model                             85         32                                                            -5.5121761                            1_GWF-(3,11,20)
 Backtracking                      86                     0          0       6154429.0       6154429.0                       *                                   
 Model                             86         38                                                            -5.4924575                            1_GWF-(3,11,20)
 Backtracking                      87                     0          0       6156392.2       6156392.2                       *                                   
 Model                             87         37                                                            -5.4728532                            1_GWF-(3,11,20)
 Backtracking                      88                     0          0       6158295.6       6158295.6                       *                                   
 Model                             88         36                                                            -5.4533553                            1_GWF-(3,11,20)
 Backtracking                      89                     0          0       6160127.2       6160127.2                       *                                   
 Model                             89         44                                                            -5.4339780                            1_GWF-(3,11,20)
 Backtracking                      90                     0          0       6161900.2       6161900.2                       *                                   
 Model                             90         34                                                            -5.4147148                            1_GWF-(3,11,20)
 Backtracking                      91                     0          0       6163604.8       6163604.8                       *                                   
 Model                             91         47                                                            -5.3955766                            1_GWF-(3,11,20)
 Backtracking                      92                     0          0       6165246.5       6165246.5                       *                                   
 Model                             92         32                                                            -5.3765637                            1_GWF-(3,11,20)
 Backtracking                      93                     0          0       6166827.1       6166827.1                       *                                   
 Model                             93         34                                                            -5.3576786                            1_GWF-(3,11,20)
 Backtracking                      94                     0          0       6168355.2       6168355.2                       *                                   
 Model                             94         28                                                            -5.3389142                            1_GWF-(3,11,20)
 Backtracking                      95                     0          0       6169814.4       6169814.4                       *                                   
 Model                             95         30                                                            -5.3202880                            1_GWF-(3,11,20)
 Backtracking                      96                     0          0       6171223.8       6171223.8                       *                                   
 Model                             96         30                                                            -5.3017890                            1_GWF-(3,11,20)
 Backtracking                      97                     0          0       6172567.2       6172567.2                       *                                   
 Model                             97         30                                                            -5.2834296                            1_GWF-(3,11,20)
 Backtracking                      98                     0          0       6173846.8       6173846.8                       *                                   
 Model                             98         37                                                            -5.2652120                            1_GWF-(3,11,20)
 Backtracking                      99                     0          0       6175086.4       6175086.4                       *                                   
 Model                             99         40                                                            -5.2471183                            1_GWF-(3,11,20)
 Backtracking                     100                     0          0       6176277.0       6176277.0                       *                                   
 Model                            100         30                                                            -5.2291553                            1_GWF-(3,11,20)
 ----------------------------------------------------------------------------------------------------------------------------------------------------------------


 Solution 1 did not converge for stress period 1 and time step 1
 Solution Group 1 did not converge for stress period 1 and time step 1
 
    Solving:  Stress period:     2    Time step:     1
 
1
                            STRESS PERIOD NO. 2, LENGTH =   31.00000    
                            -----------------------------------------------
                            NUMBER OF TIME STEPS = 1
                            MULTIPLIER FOR DELT =     1.000
                            INITIAL TIME STEP SIZE =   31.00000    

 SLN_1 OUTER ITERATION SUMMARY
 ----------------------------------------------------------------------------------------------------------------------------------------------------------------
                                OUTER      INNER  BACKTRACK  BACKTRACK        INCOMING        OUTGOING                    STEP   MAXIMUM CHANGE MODEL-(CELLID) OR
 OUTER ITERATION STEP       ITERATION  ITERATION       FLAG ITERATIONS        RESIDUAL        RESIDUAL  MAXIMUM CHANGE SUCCESS             MODEL-PACKAGE-(NUMBER)
 ----------------------------------------------------------------------------------------------------------------------------------------------------------------
 Backtracking                       1                     0          0       14803312.       14803312.                       *                                   
 Model                              1         50                                                            -735.88171                             1_GWF-(3,18,9)
 Backtracking                       2                     0          0       1536558.8       1536558.8                       *                                   
 Model                              2         50                                                            -191.58365                            1_GWF-(1,32,11)
 Backtracking                       3                     0          0       412787.81       412787.81                       *                                   
 Model                              3         50                                                            -38.295040                             1_GWF-(1,13,4)
 Backtracking                       4                     1          6       1619251.6       425447.39                                                           
 Model                              4         50                                                            -48.779706                             1_GWF-(1,11,4)
 Backtracking                       5                     1          8       1883989.9       466576.98                                                           
 Model                              5         50                                                            -49.823677                             1_GWF-(1,11,4)
 Backtracking                       6                     1          9       1888325.8       501570.19                                                           
 Model                              6         50                                                            -44.546814                             1_GWF-(1,11,4)
 Backtracking                       7                     1          9       1796018.3       537338.47                                                           
 Model                              7         50                                                            -37.690488                             1_GWF-(1,12,4)
 Backtracking                       8                     1          8       1637655.9       584499.72                                                           
 Model                              8         50                                                            -46.700108                             1_GWF-(1,11,4)
 Backtracking                       9                     1          9       1966312.8       629921.67                                                           
 Model                              9         50                                                            -48.017463                             1_GWF-(1,11,4)
 Backtracking                      10                     1          9       1953735.9       675310.79                                                           
 Model                             10         50                                                            -49.055061                             1_GWF-(1,11,4)
 Backtracking                      11                     1          9       2034685.7       723485.21                                                           
 Model                             11         50                                                            -45.062745                             1_GWF-(1,11,4)
 Backtracking                      12                     1          8       1918637.6       785423.58                                                           
 Model                             12         50                                                            -41.670750                             1_GWF-(1,11,4)
 Backtracking                      13                     1          8       1863117.2       842360.37                                                           
 Model                             13         50                                                            -57.458212                             1_GWF-(1,11,4)
 Backtracking                      14                     1          9       2482170.7       904684.57                                                           
 Model                             14         50                                                            -41.719624                             1_GWF-(1,11,4)
 Backtracking                      15                     1          7       1948987.9       986082.47                                                           
 Model                             15         50                                                            -43.492386                             1_GWF-(1,11,4)
 Backtracking                      16                     1          7       2060934.4       1071082.6                                                           
 Model                             16         50                                                            -45.823956                             1_GWF-(1,11,4)
 Backtracking                      17                     1          7       2200415.9       1161336.3                                                           
 Model                             17         50                                                            -50.371879                             1_GWF-(1,11,4)
 Backtracking                      18                     1          7       2477268.5       1267399.0                                                           
 Model                             18         50                                                            -38.809122                             1_GWF-(1,12,3)
 Backtracking                      19                     1          6       2162959.9       1370700.7                                                           
 Model                             19         50                                                            -46.373091                             1_GWF-(1,11,4)
 Backtracking                      20                     1          7       2559420.8       1467327.2                                                           
 Model                             20         50                                                            -45.530145                             1_GWF-(1,11,4)
 Backtracking                      21                     1          6       2647907.0       1604830.6                                                           
 Model                             21         50                                                            -40.355436                              1_GWF-(1,8,6)
 Backtracking                      22                     1          5       2491657.2       1752585.4                                                           
 Model                             22         50                                                            -48.730988                              1_GWF-(1,8,6)
 Backtracking                      23                     1          6       3191744.6       1921035.6                                                           
 Model                             23         50                                                            -63.523375                              1_GWF-(1,8,6)
 Backtracking                      24                     1          8       4413183.7       2064185.9                                                           
 Model                             24         50                                                            -31048.386                              1_GWF-(1,8,6)
 Backtracking                      25                     1         27  2.30127243E+09       2214976.9                                                           
 Model                             25         50                                                             10.985729                              1_GWF-(1,8,5)
 Backtracking                      26                     0          0       173109.33       173109.33                       *                                   
 Model                             26         50                                                            -18.901554                              1_GWF-(1,8,6)
 Backtracking                      27                     1          8       1259041.2       179405.05                                                           
 Model                             27         50                                                            -22.208788                              1_GWF-(1,8,6)
 Backtracking                      28                     1         11       1961462.6       194762.37                                                           
 Model                             28         50                                                            -22.970854                              1_GWF-(1,8,6)
 Backtracking                      29                     1         12       2145863.9       210155.79                                                           
 Model                             29         50                                                            -9.3858496                              1_GWF-(1,8,6)
 Backtracking                      30                     1          4       869398.98       224946.68                                                           
 Model                             30         50                                                            -23.776619                              1_GWF-(1,8,6)
 Backtracking                      31                     1          7       2103879.1       214074.32                                                           
 Model                             31         50                                                            -22.840860                              1_GWF-(1,8,6)
 Backtracking                      32                     1         11       2034565.5       230882.98                                                           
 Model                             32         50                                                            -19.412759                              1_GWF-(1,8,6)
 Backtracking                      33                     1         11       1700648.0       248395.47                                                           
 Model                             33         50                                                            -24.266666                              1_GWF-(1,8,6)
 Backtracking                      34                     1         12       2571277.0       269201.49                                                           
 Model                             34         50                                                            -20.639819                              1_GWF-(1,8,6)
 Backtracking                      35                     1         11       1739346.0       290797.32                                                           
 Model                             35         50                                                            -21.990805                              1_GWF-(1,8,6)
 Backtracking                      36                     1         11       1960316.4       316797.37                                                           
 Model                             36         50                                                            -23.027632                              1_GWF-(1,8,6)
 Backtracking                      37                     1         12       2383414.4       339993.03                                                           
 Model                             37         50                                                            -19.828270                              1_GWF-(1,8,6)
 Backtracking                      38                     1         10       1645317.0       372013.42                                                           
 Model                             38         50                                                            -21.505834                              1_GWF-(1,8,6)
 Backtracking                      39                     1         11       2069600.1       401530.67                                                           
 Model                             39         50                                                            -21.182342                              1_GWF-(1,8,6)
 Backtracking                      40                     1         11       2029632.4       430469.18                                                           
 Model                             40         50                                                            -22.332925                              1_GWF-(1,8,6)
 Backtracking                      41                     1         11       2436754.2       466449.39                                                           
 Model                             41         50                                                            -20.163543                              1_GWF-(1,8,6)
 Backtracking                      42                     1         10       2042353.7       507895.18                                                           
 Model                             42         50                                                            -20.948032                              1_GWF-(1,8,6)
 Backtracking                      43                     1         11       2430095.7       543411.47                                                           
 Model                             43         50                                                            -21.376008                              1_GWF-(1,8,6)
 Backtracking                      44                     1         10       2413770.9       593447.84                                                           
 Model                             44         50                                                            -20.739071                              1_GWF-(1,8,6)
 Backtracking                      45                     1         10       2316245.0       640083.31                                                           
 Model                             45         50                                                            -20.754755                              1_GWF-(1,8,6)
 Backtracking                      46                     1         10       2460881.4       689583.92                                                           
 Model                             46         50                                                            -18.290852                              1_GWF-(1,8,6)
 Backtracking                      47                     1          8       1862386.4       755779.62                                                           
 Model                             47         50                                                            -16.445171                              1_GWF-(1,8,6)
 Backtracking                      48                     1          7       1497741.2       816223.62                                                           
 Model                             48         50                                                            -18.697065                              1_GWF-(1,8,6)
 Backtracking                      49                     1          9       2288931.9       874380.93                                                           
 Model                             49         50                                                            -18.461903                              1_GWF-(1,8,6)
 Backtracking                      50                     1          8       2238948.9       951754.22                                                           
 Model                             50         50                                                            -18.106238                              1_GWF-(1,8,6)
 Backtracking                      51                     1          8       2491259.4       1038900.5                                                           
 Model                             51         50                                                            -20.615969                              1_GWF-(1,8,6)
 Backtracking                      52                     1          8       2828710.3       1140485.7                                                           
 Model                             52         50                                                            -15.227414                              1_GWF-(1,8,6)
 Backtracking                      53                     1          6       1955593.6       1235917.9                                                           
 Model                             53         50                                                            -14.197330                              1_GWF-(1,8,6)
 Backtracking                      54                     1          6       2018976.1       1327571.8                                                           
 Model                             54         50                                                            -8.5405613                              1_GWF-(1,8,6)
 Backtracking                      55                     0          0       1031569.3       1031569.3                       *                                   
 Model                             55         50                                                            -9.3762644                             1_GWF-(1,11,4)
 Backtracking                      56                     1          6       1859995.8       1114286.4                                                           
 Model                             56         50                                                            -9.8508255                             1_GWF-(1,11,4)
 Backtracking                      57                     1          6       2000700.6       1207758.0                                                           
 Model                             57         50                                                            -17.243314                             1_GWF-(1,11,1)
 Backtracking                      58                     1          8       3330273.7       1320217.9                                                           
 Model                             58         50                                                            -4.5578664                             1_GWF-(1,4,20)
 Backtracking                      59                     0          0       1010218.4       1010218.4                       *                                   
 Model                             59         50                                                            -9.6757284                              1_GWF-(1,8,6)
 Backtracking                      60                     1          6       1930330.8       1104005.1                                                           
 Model                             60         50                                                            -9.6263280                              1_GWF-(1,8,6)
 Backtracking                      61                     1          5       1797225.1       1209179.3                                                           
 Model                             61         50                                                            -9.1859311                              1_GWF-(1,8,6)
 Backtracking                      62                     1          5       1781948.2       1299911.8                                                           
 Model                             62         50                                                            -15.841988                              1_GWF-(1,8,6)
 Backtracking                      63                     1          5       2078326.8       1424179.0                                                           
 Model                             63         50                                                             26.471754                              1_GWF-(1,9,3)
 Backtracking                      64                     1          1       2683045.7       1476735.6                                                           
 Model                             64         50                                                            -11.141309                              1_GWF-(1,9,4)
 Backtracking                      65                     0          0       504285.94       504285.94                       *                                   
 Model                             65         50                                                            -8.1365985                              1_GWF-(1,9,4)
 Backtracking                      66                     1          8       1171288.5       542604.46                                                           
 Model                             66         50                                                            -8.5117904                              1_GWF-(1,9,4)
 Backtracking                      67                     1          8       1277110.0       584817.75                                                           
 Model                             67         50                                                            -7.9996891                             1_GWF-(1,1,20)
 Backtracking                      68                     1          7       1213944.7       636523.24                                                           
 Model                             68         50                                                            -5.9791868                             1_GWF-(1,1,11)
 Backtracking                      69                     1          3       820107.75       698852.50                                                           
 Model                             69         50                                                            -7.2288516                             1_GWF-(2,2,18)
 Backtracking                      70                     1          6       1195911.0       757230.40                                                           
 Model                             70         50                                                            -7.8475586                             1_GWF-(1,2,18)
 Backtracking                      71                     1          6       1369130.0       829001.11                                                           
 Model                             71         50                                                            -6.4693133                             1_GWF-(2,2,18)
 Backtracking                      72                     1          4       1144758.1       904778.42                                                           
 Model                             72         50                                                            -6.7887499                             1_GWF-(2,2,18)
 Backtracking                      73                     1          4       1260481.3       990102.99                                                           
 Model                             73         50                                                            -6.1821945                             1_GWF-(1,2,18)
 Backtracking                      74                     1          3       1223070.8       1069953.1                                                           
 Model                             74         50                                                            -5.2644219                             1_GWF-(2,2,18)
 Backtracking                      75                     0          0       1127218.4       1127218.4                       *                                   
 Model                             75         50                                                            -2.9433925                            1_GWF-(2,20,16)
 Backtracking                      76                     0          0       767659.04       767659.04                       *                                   
 Model                             76         50                                                            -2.2122989                            1_GWF-(2,20,16)
 Backtracking                      77                     0          0       506270.08       506270.08                       *                                   
 Model                             77         50                                                            -2.2118084                            1_GWF-(2,20,16)
 Backtracking                      78                     0          0       397368.93       397368.93                       *                                   
 Model                             78         50                                                            -1.1695849                            1_GWF-(3,20,16)
 Backtracking                      79                     0          0       288227.53       288227.53                       *                                   
 Model                             79         50                                                            0.50460493                            1_GWF-(1,19,18)
 Backtracking                      80                     0          0       158575.29       158575.29                       *                                   
 Model                             80         50                                                           -0.63249463                            1_GWF-(2,20,16)
 Backtracking                      81                     0          0       97126.354       97126.354                       *                                   
 Model                             81         50                                                           -0.65556056                            1_GWF-(2,20,16)
 Backtracking                      82                     0          0       64056.093       64056.093                       *                                   
 Model                             82         50                                                           -0.64916036                            1_GWF-(1,20,17)
 Backtracking                      83                     0          0       50639.605       50639.605                       *                                   
 Model                             83         50                                                           -0.12467294                            1_GWF-(3,20,16)
 Backtracking                      84                     0          0       30914.777       30914.777                       *                                   
 Model                             84         50                                                            0.12616976                            1_GWF-(1,19,18)
 Backtracking                      85                     0          0       18984.565       18984.565                       *                                   
 Model                             85         50                                                           -0.11817638                            1_GWF-(1,20,16)
 Backtracking                      86                     0          0       13435.784       13435.784                       *                                   
 Model                             86         50                                                       -9.14569842E-02                            1_GWF-(1,20,16)
 Backtracking                      87                     0          0       9732.8973       9732.8973                       *                                   
 Model                             87         50                                                           -0.12490524                            1_GWF-(1,20,16)
 Backtracking                      88                     0          0       7946.1051       7946.1051                       *                                   
 Model                             88         50                                                       -2.73645768E-02                            1_GWF-(3,20,16)
 Backtracking                      89                     0          0       5736.8446       5736.8446                       *                                   
 Model                             89         50                                                            0.15342496                            1_GWF-(3,19,18)
 Backtracking                      90                     0          0       5865.9011       5865.9011                       *                                   
 Model                             90         50                                                       -5.33705581E-02                             1_GWF-(1,8,20)
 Backtracking                      91                     0          0       2772.1651       2772.1651                       *                                   
 Model                             91         50                                                       -4.15370861E-02                             1_GWF-(2,16,9)
 Backtracking                      92                     0          0       1868.9401       1868.9401                       *                                   
 Model                             92         50                                                       -4.64725750E-02                            1_GWF-(1,21,17)
 Backtracking                      93                     1          3       2631.9223       2014.7343                                                           
 Model                             93         50                                                       -3.74855595E-02                            1_GWF-(1,20,17)
 Backtracking                      94                     1          2       2501.6522       2206.8927                                                           
 Model                             94         50                                                       -4.30880429E-02                            1_GWF-(1,21,20)
 Backtracking                      95                     1          4       2999.3767       2372.1676                                                           
 Model                             95         50                                                       -1.85107491E-02                            1_GWF-(1,20,16)
 Backtracking                      96                     0          0       2147.0144       2147.0144                       *                                   
 Model                             96         50                                                       -1.62202694E-02                            1_GWF-(2,29,20)
 Backtracking                      97                     0          0       1985.5725       1985.5725                       *                                   
 Model                             97         50                                                       -1.25188379E-02                            1_GWF-(3,29,20)
 Backtracking                      98                     0          0       1781.6855       1781.6855                       *                                   
 Model                             98         50                                                       -9.38904657E-03                            1_GWF-(3,29,20)
 Backtracking                      99                     0          0       1543.9963       1543.9963                       *                                   
 Model                             99         50                                                       -1.56167226E-02                            1_GWF-(1,18,20)
 Backtracking                     100                     0          0       1691.9778       1691.9778                       *                                   
 Model                            100         50                                                        2.61983970E-03                            1_GWF-(1,19,19)
 ----------------------------------------------------------------------------------------------------------------------------------------------------------------


 Solution 1 did not converge for stress period 2 and time step 1
 Solution Group 1 did not converge for stress period 2 and time step 1
 
    Solving:  Stress period:     3    Time step:     1
 
1
                            STRESS PERIOD NO. 3, LENGTH =   29.00000    
                            -----------------------------------------------
                            NUMBER OF TIME STEPS = 1
                            MULTIPLIER FOR DELT =     1.000
                            INITIAL TIME STEP SIZE =   29.00000    

 SLN_1 OUTER ITERATION SUMMARY
 ----------------------------------------------------------------------------------------------------------------------------------------------------------------
                                OUTER      INNER  BACKTRACK  BACKTRACK        INCOMING        OUTGOING                    STEP   MAXIMUM CHANGE MODEL-(CELLID) OR
 OUTER ITERATION STEP       ITERATION  ITERATION       FLAG ITERATIONS        RESIDUAL        RESIDUAL  MAXIMUM CHANGE SUCCESS             MODEL-PACKAGE-(NUMBER)
 ----------------------------------------------------------------------------------------------------------------------------------------------------------------
 Backtracking                       1                     0          0       1008278.7       1008278.7                       *                                   
 Model                              1         50                                                            -574.68910                            1_GWF-(3,21,15)
 Backtracking                       2                     0          0       128870.33       128870.33                       *                                   
 Model                              2         50                                                            -82.188365                             1_GWF-(1,11,3)
 Backtracking                       3                     0          0       22460.435       22460.435                       *                                   
 Model                              3         50                                                            -11.786833                              1_GWF-(1,1,1)
 Backtracking                       4                     0          0       20007.594       20007.594                       *                                   
 Model                              4         50                                                            -3.6924180                             1_GWF-(1,12,1)
 Backtracking                       5                     0          0       8791.8332       8791.8332                       *                                   
 Model                              5         50                                                            -1.3309407                             1_GWF-(1,19,1)
 Backtracking                       6                     0          0       7239.1623       7239.1623                       *                                   
 Model                              6         50                                                           -0.44378774                             1_GWF-(1,11,1)
 Backtracking                       7                     0          0       2420.9227       2420.9227                       *                                   
 Model                              7         50                                                           -0.18407376                              1_GWF-(1,1,9)
 Backtracking                       8                     0          0       1429.9504       1429.9504                       *                                   
 Model                              8         50                                                           -0.11076393                             1_GWF-(1,1,20)
 Backtracking                       9                     0          0       803.17087       803.17087                       *                                   
 Model                              9         50                                                        3.15080459E-02                             1_GWF-(1,37,5)
 Backtracking                      10                     0          0       281.14172       281.14172                       *                                   
[...]
 Backtracking                      43                     1          7       7809.3872       3721.8865                                                           
 Model                             43         50                                                            0.17781879                             1_GWF-(1,4,15)
 Backtracking                      44                     1          9       10728.355       3981.8732                                                           
 Model                             44         50                                                            0.18053652                             1_GWF-(1,4,15)
 Backtracking                      45                     1          8       11015.317       4360.3979                                                           
 Model                             45         50                                                            0.20228210                             1_GWF-(1,1,17)
 Backtracking                      46                     1          9       12403.014       4666.2995                                                           
 Model                             46         50                                                            0.19655322                             1_GWF-(1,4,15)
 Backtracking                      47                     1          8       12480.530       5097.8923                                                           
 Model                             47         50                                                            0.21075262                             1_GWF-(1,4,15)
 Backtracking                      48                     1          8       13527.330       5567.4827                                                           
 Model                             48         50                                                            0.24811281                             1_GWF-(1,4,15)
 Backtracking                      49                     1          9       15971.757       5975.7783                                                           
 Model                             49         50                                                             1.0694347                             1_GWF-(1,8,14)
 Backtracking                      50                     1         13       59839.232       6484.7902                                                           
 Model                             50         50                                                            0.44293225                             1_GWF-(1,8,14)
 Backtracking                      51                     1         10       27134.879       7056.2858                                                           
 Model                             51         50                                                        8.08868910E-02                             1_GWF-(1,1,17)
 Backtracking                      52                     0          0       7460.0693       7460.0693                       *                                   
 Model                             52         50                                                           -0.12453307                             1_GWF-(1,7,15)
 Backtracking                      53                     0          0       1147.7700       1147.7700                       *                                   
 Model                             53         50                                                        9.60900657E-02                             1_GWF-(1,4,15)
 Backtracking                      54                     1          3       3209.2402       924.07838                                                           
 Model                             54         50                                                        9.69236791E-02                             1_GWF-(1,4,15)
 Backtracking                      55                     1          9       4159.9166       1010.7723                                                           
 Model                             55         50                                                        9.60703839E-02                             1_GWF-(1,4,15)
 Backtracking                      56                     1          9       4216.5455       1107.0368                                                           
 Model                             56         50                                                        9.51922391E-02                             1_GWF-(1,4,15)
 Backtracking                      57                     1          9       4270.6164       1209.4346                                                           
 Model                             57         50                                                        9.37383834E-02                             1_GWF-(1,4,15)
 Backtracking                      58                     1          9       4293.9213       1314.4397                                                           
 Model                             58         50                                                        9.21305249E-02                             1_GWF-(1,4,15)
 Backtracking                      59                     1          9       4302.2646       1419.8362                                                           
 Model                             59         50                                                        9.44714167E-02                             1_GWF-(1,4,15)
 Backtracking                      60                     1          9       4497.2070       1531.1179                                                           
 Model                             60         50                                                        9.51910965E-02                             1_GWF-(1,4,15)
 Backtracking                      61                     1          9       4624.8175       1645.2568                                                           
 Model                             61         50                                                        9.61109259E-02                             1_GWF-(1,4,15)
 Backtracking                      62                     1          9       4753.3160       1761.6185                                                           
 Model                             62         50                                                        9.50782927E-02                             1_GWF-(1,4,15)
 Backtracking                      63                     1          8       4794.9161       1926.4006                                                           
 Model                             63         50                                                        9.54008944E-02                             1_GWF-(1,4,15)
 Backtracking                      64                     1          8       4919.7785       2090.9646                                                           
 Model                             64         50                                                        9.63567847E-02                             1_GWF-(1,4,15)
 Backtracking                      65                     1          8       5092.6997       2257.5040                                                           
 Model                             65         50                                                        9.11069633E-02                             1_GWF-(1,4,15)
 Backtracking                      66                     1          7       4973.6387       2474.7405                                                           
 Model                             66         50                                                        9.73207967E-02                             1_GWF-(1,4,15)
 Backtracking                      67                     1          7       5412.2815       2710.9812                                                           
 Model                             67         50                                                        9.83142053E-02                             1_GWF-(1,4,15)
 Backtracking                      68                     1          7       5631.9764       2947.0654                                                           
 Model                             68         50                                                        7.58584883E-02                             1_GWF-(1,4,15)
 Backtracking                      69                     1          6       4846.3607       3167.6347                                                           
 Model                             69         50                                                        9.84296930E-02                             1_GWF-(1,4,15)
 Backtracking                      70                     1          7       5974.4487       3395.9306                                                           
 Model                             70         50                                                        6.77153757E-02                             1_GWF-(1,1,17)
 Backtracking                      71                     1          4       4799.5957       3730.7435                                                           
 Model                             71         50                                                            0.10772081                             1_GWF-(1,4,15)
 Backtracking                      72                     1          6       6837.3179       4093.7068                                                           
 Model                             72         50                                                            0.12961878                             1_GWF-(1,4,15)
 Backtracking                      73                     1          7       8019.9487       4415.0344                                                           
 Model                             73         50                                                            0.19234865                             1_GWF-(1,4,15)
 Backtracking                      74                     1          8       10984.786       4791.5897                                                           
 Model                             74         50                                                           -0.71685602                             1_GWF-(1,7,15)
 Backtracking                      75                     1          3       22570.066       4646.9464                                                           
 Model                             75         50                                                            0.10885300                             1_GWF-(1,5,18)
 Backtracking                      76                     0          0       541.78150       541.78150                       *                                   
 Model                             76         50                                                        9.06712769E-02                             1_GWF-(1,4,15)
 Backtracking                      77                     1          4       2522.1999       586.59436                                                           
 Model                             77         50                                                        9.79890212E-02                             1_GWF-(1,9,14)
 Backtracking                      78                     4          8       2594.8510       668.92083                                                           
 Model                             78         50                                                        8.89268834E-02                             1_GWF-(1,8,14)
 Backtracking                      79                     4          8       2915.2456       775.11471                                                           
 Model                             79         50                                                        8.78187557E-02                             1_GWF-(1,4,15)
 Backtracking                      80                     4          8       3053.0893       890.76732                                                           
 Model                             80         50                                                        8.79033286E-02                             1_GWF-(1,4,15)
 Backtracking                      81                     4          8       3155.1171       1010.1534                                                           
 Model                             81         50                                                        8.72167541E-02                             1_GWF-(1,4,15)
 Backtracking                      82                     4          8       3242.4843       1130.7087                                                           
 Model                             82         50                                                        8.70105551E-02                             1_GWF-(1,4,15)
 Backtracking                      83                     4          8       3356.5319       1252.9456                                                           
 Model                             83         50                                                        9.20607331E-02                             1_GWF-(1,1,17)
 Backtracking                      84                     1          8       3327.5057       1367.3181                                                           
 Model                             84         50                                                            0.11924444                             1_GWF-(1,3,20)
 Backtracking                      85                     1          9       4176.5138       1477.2953                                                           
 Model                             85         50                                                        8.26962155E-02                             1_GWF-(1,4,15)
 Backtracking                      86                     1          8       3589.3573       1596.1025                                                           
 Model                             86         50                                                        8.58785575E-02                             1_GWF-(1,4,15)
 Backtracking                      87                     1          8       3656.7576       1712.1732                                                           
 Model                             87         50                                                        8.41867316E-02                             1_GWF-(1,4,15)
 Backtracking                      88                     1          7       3721.5258       1874.8009                                                           
 Model                             88         50                                                        8.47143894E-02                             1_GWF-(1,4,15)
 Backtracking                      89                     1          7       3882.2494       2037.9240                                                           
 Model                             89         50                                                        8.13443771E-02                             1_GWF-(1,1,17)
 Backtracking                      90                     1          6       3688.0630       2229.7483                                                           
 Model                             90         50                                                        8.22391935E-02                             1_GWF-(1,1,17)
 Backtracking                      91                     1          6       4063.3159       2443.7179                                                           
 Model                             91         50                                                        7.78820417E-02                             1_GWF-(1,1,17)
 Backtracking                      92                     1          5       3873.7475       2682.5777                                                           
 Model                             92         50                                                        8.42567192E-02                             1_GWF-(1,4,15)
 Backtracking                      93                     1          6       4518.4935       2897.5425                                                           
 Model                             93         50                                                        1.66986283E-02                             1_GWF-(1,1,17)
 Backtracking                      94                     0          0       2180.6931       2180.6931                       *                                   
 Model                             94         50                                                        6.86187999E-02                             1_GWF-(1,4,15)
 Backtracking                      95                     0          0       2397.9105       2397.9105                       *                                   
 Model                             95         50                                                            0.12213599                             1_GWF-(1,3,12)
 Backtracking                      96                     1          4       3397.5063       2612.4658                                                           
 Model                             96         50                                                       -3.06544639E-02                             1_GWF-(1,7,15)
 Backtracking                      97                     0          0       1836.5866       1836.5866                       *                                   
 Model                             97         50                                                            0.16487369                             1_GWF-(1,1,12)
 Backtracking                      98                     1          5       2907.2119       1997.3837                                                           
 Model                             98         50                                                            0.13965130                             1_GWF-(1,1,12)
 Backtracking                      99                     1          5       3024.4559       2156.6944                                                           
 Model                             99         50                                                           -0.28465191                             1_GWF-(2,5,15)
 Backtracking                     100                     0          0       1369.9269       1369.9269                       *                                   
 Model                            100         50                                                        8.80766339E-02                             1_GWF-(1,4,15)
 ----------------------------------------------------------------------------------------------------------------------------------------------------------------


 Solution 1 did not converge for stress period 25 and time step 1
 Solution Group 1 did not converge for stress period 25 and time step 1


 Solution SLN_1 summary
 ----------------------------------------------------------------------
 Total formulate time:  .5156250000000000 seconds
 Total solution time:   5.687500000000000 seconds


 MEMORY MANAGER TOTAL STORAGE BY DATA TYPE, IN MEGABYTES
 -------------------------------
                    ALLOCATED   
 DATA TYPE           MEMORY     
 -------------------------------
 Character        5.73300000E-03
 Logical          4.40000000E-05
 Integer          0.61834400    
 Real             1.1723440     
 -------------------------------
 Total            1.7964650     
 -------------------------------


 
 Run end date and time (yyyy/mm/dd hh:mm:ss): 2022/02/23 14:55:30
 Elapsed run time:  9.125 Seconds

WARNING REPORT:

  1.  Simulation convergence failure occurred 14 time(s).
 Normal termination of simulation.
