                                  MODFLOW-NWT-SWR1 
      U.S. GEOLOGICAL SURVEY MODULAR FINITE-DIFFERENCE GROUNDWATER-FLOW MODEL
                             VERSION 1.1.4 4/01/2018
                    BASED ON MODFLOW-2005 VERSION 1.12.00 02/03/2017

 LIST FILE: freyberg.list
                         UNIT    2

 OPENING freyberg.dis
 FILE TYPE:DIS   UNIT   11   STATUS:OLD    
 FORMAT:FORMATTED              ACCESS:SEQUENTIAL          

 OPENING freyberg.hyd
 FILE TYPE:HYD   UNIT   36   STATUS:OLD    
 FORMAT:FORMATTED              ACCESS:SEQUENTIAL          

 OPENING freyberg.upw
 FILE TYPE:UPW   UNIT   31   STATUS:OLD    
 FORMAT:FORMATTED              ACCESS:SEQUENTIAL          

 OPENING freyberg.nwt
 FILE TYPE:NWT   UNIT   32   STATUS:OLD    
 FORMAT:FORMATTED              ACCESS:SEQUENTIAL          

 OPENING freyberg.bas
 FILE TYPE:BAS6   UNIT   13   STATUS:OLD    
 FORMAT:FORMATTED              ACCESS:SEQUENTIAL          

 OPENING freyberg.rch
 FILE TYPE:RCH   UNIT   19   STATUS:OLD    
 FORMAT:FORMATTED              ACCESS:SEQUENTIAL          

 OPENING freyberg.wel
 FILE TYPE:WEL   UNIT   20   STATUS:OLD    
 FORMAT:FORMATTED              ACCESS:SEQUENTIAL          

 OPENING freyberg.oc
 FILE TYPE:OC   UNIT   14   STATUS:OLD    
 FORMAT:FORMATTED              ACCESS:SEQUENTIAL          

 OPENING freyberg.sfr
 FILE TYPE:SFR   UNIT   18   STATUS:OLD    
 FORMAT:FORMATTED              ACCESS:SEQUENTIAL          

 OPENING freyberg.hyd.bin
 FILE TYPE:DATA(BINARY)   UNIT  536   STATUS:REPLACE
 FORMAT:BINARY                 ACCESS:SEQUENTIAL          

 OPENING freyberg.cbc
 FILE TYPE:DATA(BINARY)   UNIT   53   STATUS:REPLACE
 FORMAT:BINARY                 ACCESS:SEQUENTIAL          

 OPENING freyberg.hds
 FILE TYPE:DATA(BINARY)   UNIT   51   STATUS:REPLACE
 FORMAT:BINARY                 ACCESS:SEQUENTIAL          

 OPENING freyberg.sfo
 FILE TYPE:DATA   UNIT   60   STATUS:UNKNOWN
 FORMAT:FORMATTED              ACCESS:SEQUENTIAL          

 BAS -- BASIC PACKAGE, VERSION 1.1.4, 4/01/2018 INPUT READ FROM UNIT   13
 
 MODFLOW was compiled using mixed precision
 Precision of REAL variables:           6
 Precision of DOUBLE PRECISION variables:          15

 DISCRETIZATION INPUT DATA READ FROM UNIT   11
 # DIS package for MODFLOW-NWT generated by Flopy 3.3.5
    1 LAYERS        40 ROWS        20 COLUMNS
    3 STRESS PERIOD(S) IN SIMULATION
 MODEL TIME UNIT IS DAYS
 MODEL LENGTH UNIT IS METERS
  Confining bed flag for each layer:
   0



                               DELR
 READING ON UNIT   11 WITH FORMAT: (FREE)              



                               DELC
 READING ON UNIT   11 WITH FORMAT: (FREE)              

 TOP ELEVATION OF LAYER 1 =   35.0000    



             MODEL LAYER BOTTOM EL. FOR LAYER   1
 READING ON UNIT   11 WITH FORMAT: (FREE)              


 STRESS PERIOD     LENGTH       TIME STEPS     MULTIPLIER FOR DELT    SS FLAG
 ----------------------------------------------------------------------------
        1         1.000000          1                    1.000         SS
        2         3650.000          1                    1.000         TR
        3         1.000000          1                    1.000         SS

 COMBINED STEADY-STATE AND TRANSIENT SIMULATION



 
 # BAS6 package for MODFLOW-NWT generated by Flopy 3.3.5                         
 THE FREE FORMAT OPTION HAS BEEN SELECTED



                     BOUNDARY ARRAY FOR LAYER   1
 READING ON UNIT   13 WITH FORMAT: (FREE)              

 AQUIFER HEAD WILL BE SET TO  -999.99     AT ALL NO-FLOW NODES (IBOUND=0).



                       INITIAL HEAD FOR LAYER   1
 READING ON UNIT   13 WITH FORMAT: (FREE)              
 # OC package for MODFLOW-NWT generated by Flopy 3.3.5

 OUTPUT CONTROL IS SPECIFIED ONLY AT TIME STEPS FOR WHICH OUTPUT IS DESIRED
 COMPACT CELL-BY-CELL BUDGET FILES WILL BE WRITTEN
 AUXILIARY DATA WILL BE SAVED IN CELL-BY-CELL BUDGET FILES
 HEAD PRINT FORMAT CODE IS   0    DRAWDOWN PRINT FORMAT CODE IS   0
 HEADS WILL BE SAVED ON UNIT   51    DRAWDOWNS WILL BE SAVED ON UNIT    0
 # NWT package for MODFLOW-NWT generated by Flopy 3.3.5

 NWT1 -- Newton Solver, VERSION 1.1.4, 4/01/2018
         INPUT READ FROM UNIT 32

 COMPLEX OPTION:
 DEFAULT SOLVER INPUT VALUES REFLECT STRONGLY NONLINEAR MODEL
 ***GMRES linear solver will be used***
 
   CONVERGENCE CRITERION OF   0.100000E-01 FOR HEAD SOLUTION
   AND A TOLERANCE OF   0.500000E+03 FOR FLOW SOLUTION AND 
   A MAXIMUM OF   100 OUTER ITERATIONS. 


   D-B-D REDUCTION FACTOR OF    0.850000E+00 AND 
   A D-B-D INCREASE FACTOR OF    0.100000E-04 AND 
   A D-B-D RELAXATION OF    0.000000E+00 AND 
   A MOMENTUM FACTOR OF    0.100000E+00 .


   BACKTRACKING IS ACTIVE 
   THE MAXIMUM NUMBER OF BACKTRACKS IS    50 AND 
   THE BACKTRACKING TOLERANCE IS    0.110000E+01 AND
   THE BACKTRACKING REDUCTION FACTOR IS    0.700000E+00

 GMRES -- LINEAR SOLUTION BY GMRES PACKAGE 
     adapted for HYDROTHERM by Kipp and others (2008)
     using software originally developed by Saad (1990) 32
     using algorithms described in Saad (2003)

 UPW1 -- UPSTREAM WEIGHTING FLOW PACKAGE, VERSION 1.1.4, 4/01/2018
         INPUT READ FROM UNIT 31

 # UPW package for MODFLOW-NWT generated by Flopy 3.3.5
 CELL-BY-CELL FLOWS WILL BE SAVED ON UNIT   53
 No named parameters

   LAYER FLAGS:
 LAYER       LAYTYP          LAYAVG    CHANI           LAYVKA           LAYWET
 ---------------------------------------------------------------------------
    1             1             0     1.000E+00             0             0

   INTERPRETATION OF LAYER FLAGS:
                        INTERBLOCK     HORIZONTAL    DATA IN
         LAYER TYPE   TRANSMISSIVITY   ANISOTROPY   ARRAY VKA   WETTABILITY
 LAYER   (LAYTYP)        (LAYAVG)      (CHANI)     (LAYVKA)       (LAYWET)
 ---------------------------------------------------------------------------
    1   CONVERTIBLE      HARMONIC     1.000E+00    VERTICAL K  NON-WETTABLE



              HYD. COND. ALONG ROWS FOR LAYER   1
 READING ON UNIT   31 WITH FORMAT: (FREE)              

      VERTICAL HYD. COND. =   1.00000     FOR LAYER   1

         SPECIFIC STORAGE =  1.000000E-04 FOR LAYER   1

           SPECIFIC YIELD =  0.250000     FOR LAYER   1

 WEL -- WELL PACKAGE FOR NWT VERSION 1.1.4,  4/01/2018 INPUT READ FROM UNIT   20
 # WEL package for MODFLOW-NWT generated by Flopy 3.3.5
 No named parameters
 MAXIMUM OF      6 ACTIVE WELLS AT ONE TIME
 No named parameters
  PHIRAMP WILL BE SET TO A DEFAULT VALUE OF 1.0E-5
  WELLS WITH REDUCED PUMPING WILL BE REPORTED TO THE MAIN LISTING FILE


     0 Well parameters

 RCH -- RECHARGE PACKAGE, VERSION 7, 5/2/2005 INPUT READ FROM UNIT   19
 # RCH package for MODFLOW-NWT generated by Flopy 3.3.5
 No named parameters
 OPTION 3 -- RECHARGE TO HIGHEST ACTIVE NODE IN EACH VERTICAL COLUMN


     0 Recharge parameters

 SFR7 -- STREAMFLOW ROUTING PACKAGE, VERSION 1.0.5, 2012-04-05
         INPUT READ FROM UNIT  18
 # SFR package for MODFLOW-NWT generated by Flopy 3.3.5
 No named parameters


 NUMBER OF STREAM REACHES IS   40

 NUMBER OF STREAM SEGMENTS IS   40

 NUMBER OF STREAM PARAMETERS IS    0

 NUMBER OF STREAM SEGMENTS DEFINED USING PARAMETERS IS              0

 MAXIMUM ERROR FOR STREAM LEAKAGE RATES IS  1.00E-04

 CONSTANT FOR MANNINGS EQUATION IS  8.6400E+04



 STREAM OUTPUT WILL BE WRITTEN TO FILE ON UNIT   60
 TRANSIENT STREAMFLOW ROUTING IS ACTIVE 


   STREAM NETWORK DESCRIPTION: 

   LAYER    ROW    COL   SEGMENT   REACH     LENGTH
                          NUMBER   NUMBER    IN CELL        
   --------------------------------------------------
      1      1     15       1        1    2.5000E+02
      1      2     15       2        1    2.5000E+02
      1      3     15       3        1    2.5000E+02
      1      4     15       4        1    2.5000E+02
      1      5     15       5        1    2.5000E+02
      1      6     15       6        1    2.5000E+02
      1      7     15       7        1    2.5000E+02
      1      8     15       8        1    2.5000E+02
      1      9     15       9        1    2.5000E+02
      1     10     15      10        1    2.5000E+02
      1     11     15      11        1    2.5000E+02
      1     12     15      12        1    2.5000E+02
      1     13     15      13        1    2.5000E+02
      1     14     15      14        1    2.5000E+02
      1     15     15      15        1    2.5000E+02
      1     16     15      16        1    2.5000E+02
      1     17     15      17        1    2.5000E+02
      1     18     15      18        1    2.5000E+02
      1     19     15      19        1    2.5000E+02
      1     20     15      20        1    2.5000E+02
      1     21     15      21        1    2.5000E+02
      1     22     15      22        1    2.5000E+02
      1     23     15      23        1    2.5000E+02
      1     24     15      24        1    2.5000E+02
      1     25     15      25        1    2.5000E+02
      1     26     15      26        1    2.5000E+02
      1     27     15      27        1    2.5000E+02
      1     28     15      28        1    2.5000E+02
      1     29     15      29        1    2.5000E+02
      1     30     15      30        1    2.5000E+02
      1     31     15      31        1    2.5000E+02
      1     32     15      32        1    2.5000E+02
      1     33     15      33        1    2.5000E+02
      1     34     15      34        1    2.5000E+02
      1     35     15      35        1    2.5000E+02
      1     36     15      36        1    2.5000E+02
      1     37     15      37        1    2.5000E+02
      1     38     15      38        1    2.5000E+02
      1     39     15      39        1    2.5000E+02
      1     40     15      40        1    2.5000E+02

 *** WARNING *** STREAM SEGMENT   40 REACH NO.    1 IS CONNECTED TO A CONSTANT HEAD CELL.
 IBOUND ARRAY VALUE IS   -1 AT LAYER    1; ROW   40; COLUMN   15.
 NO STREAM LEAKAGE WILL BE ALLOWED-- SUGGEST REMOVING STREAM REACH FROM CELL OR CHANGE CELL TO VARIABLE HEAD.





 HYD -- HYDROGRAPH DATA FOR BAS PACKAGE, VERSION 7, 07/14/2006
         INPUT READ FROM UNIT 36
 HYDROGRAPH VALUES WILL BE SAVED ON UNIT: 536
 HYDROGRAPH VALUES AT DRY CELLS WILL BE:  -1.00000E+10

 ARR INTYP  KLAY     XL            YL         HYDLBL
 ----------------------------------------------------------------
 HD   C      1   1.25000E+02   9.87500E+03  HDC001pr01c01       
 HD   C      1   3.75000E+02   9.87500E+03  HDC001pr01c02       
 HD   C      1   6.25000E+02   9.87500E+03  HDC001pr01c03       
 HD   C      1   8.75000E+02   9.87500E+03  HDC001pr01c04       
 HD   C      1   1.12500E+03   9.87500E+03  HDC001pr01c05       
 HD   C      1   1.37500E+03   9.87500E+03  HDC001pr01c06       
 HD   C      1   1.62500E+03   9.87500E+03  HDC001pr01c07       
 HD   C      1   1.87500E+03   9.87500E+03  HDC001pr01c08       
 HD   C      1   2.12500E+03   9.87500E+03  HDC001pr01c09       
 HD   C      1   2.37500E+03   9.87500E+03  HDC001pr01c10       
 HD   C      1   2.62500E+03   9.87500E+03  HDC001pr01c11       
 HD   C      1   2.87500E+03   9.87500E+03  HDC001pr01c12       
 HD   C      1   3.12500E+03   9.87500E+03  HDC001pr01c13       
 HD   C      1   3.37500E+03   9.87500E+03  HDC001pr01c14       
 HD   C      1   3.62500E+03   9.87500E+03  HDC001pr01c15       
 HD   C      1   3.87500E+03   9.87500E+03  HDC001pr01c16       
 HD   C      1   4.12500E+03   9.87500E+03  HDC001pr01c17       
 HD   C      1   4.37500E+03   9.87500E+03  HDC001pr01c18       
 HD   C      1   4.62500E+03   9.87500E+03  HDC001pr01c19       
 HD   C      1   4.87500E+03   9.87500E+03  HDC001pr01c20       
 HD   C      1   1.25000E+02   9.62500E+03  HDC001pr02c01       
 HD   C      1   3.75000E+02   9.62500E+03  HDC001pr02c02       
 HD   C      1   6.25000E+02   9.62500E+03  HDC001pr02c03       
 HD   C      1   8.75000E+02   9.62500E+03  HDC001pr02c04       
 HD   C      1   1.12500E+03   9.62500E+03  HDC001pr02c05       
 HD   C      1   1.37500E+03   9.62500E+03  HDC001pr02c06       
 HD   C      1   1.62500E+03   9.62500E+03  HDC001pr02c07       
 HD   C      1   1.87500E+03   9.62500E+03  HDC001pr02c08       
 HD   C      1   2.12500E+03   9.62500E+03  HDC001pr02c09       
 HD   C      1   2.37500E+03   9.62500E+03  HDC001pr02c10       
 HD   C      1   2.62500E+03   9.62500E+03  HDC001pr02c11       
 HD   C      1   2.87500E+03   9.62500E+03  HDC001pr02c12       
 HD   C      1   3.12500E+03   9.62500E+03  HDC001pr02c13       
 HD   C      1   3.37500E+03   9.62500E+03  HDC001pr02c14       
 HD   C      1   3.62500E+03   9.62500E+03  HDC001pr02c15       
 HD   C      1   3.87500E+03   9.62500E+03  HDC001pr02c16       
 HD   C      1   4.12500E+03   9.62500E+03  HDC001pr02c17       
 HD   C      1   4.37500E+03   9.62500E+03  HDC001pr02c18       
 HD   C      1   4.62500E+03   9.62500E+03  HDC001pr02c19       
 HD   C      1   4.87500E+03   9.62500E+03  HDC001pr02c20       
 HD   C      1   1.25000E+02   9.37500E+03  HDC001pr03c01       
 HD   C      1   3.75000E+02   9.37500E+03  HDC001pr03c02       
 HD   C      1   6.25000E+02   9.37500E+03  HDC001pr03c03       
 HD   C      1   8.75000E+02   9.37500E+03  HDC001pr03c04       
 HD   C      1   1.12500E+03   9.37500E+03  HDC001pr03c05       
 HD   C      1   1.37500E+03   9.37500E+03  HDC001pr03c06       
 HD   C      1   1.62500E+03   9.37500E+03  HDC001pr03c07       
 HD   C      1   1.87500E+03   9.37500E+03  HDC001pr03c08       
 HD   C      1   2.12500E+03   9.37500E+03  HDC001pr03c09       
 HD   C      1   2.37500E+03   9.37500E+03  HDC001cr03c10       
 HD   C      1   2.37500E+03   9.37500E+03  HDC001pr03c10       
 HD   C      1   2.62500E+03   9.37500E+03  HDC001pr03c11       
 HD   C      1   2.87500E+03   9.37500E+03  HDC001pr03c12       
 HD   C      1   3.12500E+03   9.37500E+03  HDC001pr03c13       
 HD   C      1   3.37500E+03   9.37500E+03  HDC001pr03c14       
 HD   C      1   3.62500E+03   9.37500E+03  HDC001pr03c15       
 HD   C      1   3.87500E+03   9.37500E+03  HDC001cr03c16       
 HD   C      1   3.87500E+03   9.37500E+03  HDC001pr03c16       
 HD   C      1   4.12500E+03   9.37500E+03  HDC001pr03c17       
 HD   C      1   4.37500E+03   9.37500E+03  HDC001pr03c18       
 HD   C      1   4.62500E+03   9.37500E+03  HDC001pr03c19       
 HD   C      1   4.87500E+03   9.37500E+03  HDC001pr03c20       
 HD   C      1   1.25000E+02   9.12500E+03  HDC001pr04c01       
 HD   C      1   3.75000E+02   9.12500E+03  HDC001pr04c02       
 HD   C      1   6.25000E+02   9.12500E+03  HDC001pr04c03       
 HD   C      1   8.75000E+02   9.12500E+03  HDC001pr04c04       
 HD   C      1   1.12500E+03   9.12500E+03  HDC001pr04c05       
 HD   C      1   1.37500E+03   9.12500E+03  HDC001pr04c06       
 HD   C      1   1.62500E+03   9.12500E+03  HDC001pr04c07       
 HD   C      1   1.87500E+03   9.12500E+03  HDC001pr04c08       
 HD   C      1   2.12500E+03   9.12500E+03  HDC001cr04c09       
 HD   C      1   2.12500E+03   9.12500E+03  HDC001pr04c09       
 HD   C      1   2.37500E+03   9.12500E+03  HDC001pr04c10       
 HD   C      1   2.62500E+03   9.12500E+03  HDC001pr04c11       
 HD   C      1   2.87500E+03   9.12500E+03  HDC001pr04c12       
 HD   C      1   3.12500E+03   9.12500E+03  HDC001pr04c13       
 HD   C      1   3.37500E+03   9.12500E+03  HDC001pr04c14       
 HD   C      1   3.62500E+03   9.12500E+03  HDC001pr04c15       
 HD   C      1   3.87500E+03   9.12500E+03  HDC001pr04c16       
 HD   C      1   4.12500E+03   9.12500E+03  HDC001pr04c17       
 HD   C      1   4.37500E+03   9.12500E+03  HDC001pr04c18       
 HD   C      1   4.62500E+03   9.12500E+03  HDC001pr04c19       
 HD   C      1   4.87500E+03   9.12500E+03  HDC001pr04c20       
 HD   C      1   1.25000E+02   8.87500E+03  HDC001pr05c01       
 HD   C      1   3.75000E+02   8.87500E+03  HDC001pr05c02       
 HD   C      1   6.25000E+02   8.87500E+03  HDC001pr05c03       
 HD   C      1   8.75000E+02   8.87500E+03  HDC001fr05c04       
 HD   C      1   1.12500E+03   8.87500E+03  HDC001pr05c05       
 HD   C      1   1.37500E+03   8.87500E+03  HDC001pr05c06       
 HD   C      1   1.62500E+03   8.87500E+03  HDC001pr05c07       
 HD   C      1   1.87500E+03   8.87500E+03  HDC001pr05c08       
 HD   C      1   2.12500E+03   8.87500E+03  HDC001pr05c09       
 HD   C      1   2.37500E+03   8.87500E+03  HDC001pr05c10       
 HD   C      1   2.62500E+03   8.87500E+03  HDC001pr05c11       
 HD   C      1   2.87500E+03   8.87500E+03  HDC001pr05c12       
 HD   C      1   3.12500E+03   8.87500E+03  HDC001pr05c13       
 HD   C      1   3.37500E+03   8.87500E+03  HDC001pr05c14       
 HD   C      1   3.62500E+03   8.87500E+03  HDC001pr05c15       
 HD   C      1   3.87500E+03   8.87500E+03  HDC001pr05c16       
 HD   C      1   4.12500E+03   8.87500E+03  HDC001pr05c17       
 HD   C      1   4.37500E+03   8.87500E+03  HDC001pr05c18       
 HD   C      1   4.62500E+03   8.87500E+03  HDC001pr05c19       
 HD   C      1   4.87500E+03   8.87500E+03  HDC001pr05c20       
 HD   C      1   1.25000E+02   8.62500E+03  HDC001pr06c01       
 HD   C      1   3.75000E+02   8.62500E+03  HDC001pr06c02       
 HD   C      1   6.25000E+02   8.62500E+03  HDC001pr06c03       
 HD   C      1   8.75000E+02   8.62500E+03  HDC001pr06c04       
 HD   C      1   1.12500E+03   8.62500E+03  HDC001pr06c05       
 HD   C      1   1.37500E+03   8.62500E+03  HDC001pr06c06       
 HD   C      1   1.62500E+03   8.62500E+03  HDC001pr06c07       
 HD   C      1   1.87500E+03   8.62500E+03  HDC001pr06c08       
 HD   C      1   2.12500E+03   8.62500E+03  HDC001pr06c09       
 HD   C      1   2.37500E+03   8.62500E+03  HDC001pr06c10       
 HD   C      1   2.62500E+03   8.62500E+03  HDC001pr06c11       
 HD   C      1   2.87500E+03   8.62500E+03  HDC001pr06c12       
 HD   C      1   3.12500E+03   8.62500E+03  HDC001pr06c13       
 HD   C      1   3.37500E+03   8.62500E+03  HDC001pr06c14       
 HD   C      1   3.62500E+03   8.62500E+03  HDC001pr06c15       
 HD   C      1   3.87500E+03   8.62500E+03  HDC001pr06c16       
 HD   C      1   4.12500E+03   8.62500E+03  HDC001pr06c17       
 HD   C      1   4.37500E+03   8.62500E+03  HDC001pr06c18       
 HD   C      1   4.62500E+03   8.62500E+03  HDC001pr06c19       
 HD   C      1   4.87500E+03   8.62500E+03  HDC001pr06c20       
 HD   C      1   1.25000E+02   8.37500E+03  HDC001pr07c01       
 HD   C      1   3.75000E+02   8.37500E+03  HDC001pr07c02       
 HD   C      1   6.25000E+02   8.37500E+03  HDC001pr07c03       
 HD   C      1   8.75000E+02   8.37500E+03  HDC001pr07c04       
 HD   C      1   1.12500E+03   8.37500E+03  HDC001pr07c05       
 HD   C      1   1.37500E+03   8.37500E+03  HDC001pr07c06       
 HD   C      1   1.62500E+03   8.37500E+03  HDC001pr07c07       
 HD   C      1   1.87500E+03   8.37500E+03  HDC001pr07c08       
 HD   C      1   2.12500E+03   8.37500E+03  HDC001pr07c09       
 HD   C      1   2.37500E+03   8.37500E+03  HDC001pr07c10       
 HD   C      1   2.62500E+03   8.37500E+03  HDC001pr07c11       
 HD   C      1   2.87500E+03   8.37500E+03  HDC001pr07c12       
 HD   C      1   3.12500E+03   8.37500E+03  HDC001pr07c13       
 HD   C      1   3.37500E+03   8.37500E+03  HDC001pr07c14       
 HD   C      1   3.62500E+03   8.37500E+03  HDC001pr07c15       
 HD   C      1   3.87500E+03   8.37500E+03  HDC001pr07c16       
 HD   C      1   4.12500E+03   8.37500E+03  HDC001pr07c17       
 HD   C      1   4.37500E+03   8.37500E+03  HDC001pr07c18       
 HD   C      1   4.62500E+03   8.37500E+03  HDC001pr07c19       
 HD   C      1   4.87500E+03   8.37500E+03  HDC001pr07c20       
 HD   C      1   1.25000E+02   8.12500E+03  HDC001pr08c01       
 HD   C      1   3.75000E+02   8.12500E+03  HDC001pr08c02       
 HD   C      1   6.25000E+02   8.12500E+03  HDC001pr08c03       
 HD   C      1   8.75000E+02   8.12500E+03  HDC001pr08c04       
 HD   C      1   1.12500E+03   8.12500E+03  HDC001pr08c05       
 HD   C      1   1.37500E+03   8.12500E+03  HDC001pr08c06       
 HD   C      1   1.62500E+03   8.12500E+03  HDC001pr08c07       
 HD   C      1   1.87500E+03   8.12500E+03  HDC001pr08c08       
 HD   C      1   2.12500E+03   8.12500E+03  HDC001pr08c09       
 HD   C      1   2.37500E+03   8.12500E+03  HDC001pr08c10       
 HD   C      1   2.62500E+03   8.12500E+03  HDC001pr08c11       
 HD   C      1   2.87500E+03   8.12500E+03  HDC001pr08c12       
 HD   C      1   3.12500E+03   8.12500E+03  HDC001pr08c13       
 HD   C      1   3.37500E+03   8.12500E+03  HDC001pr08c14       
 HD   C      1   3.62500E+03   8.12500E+03  HDC001pr08c15       
 HD   C      1   3.87500E+03   8.12500E+03  HDC001pr08c16       
 HD   C      1   4.12500E+03   8.12500E+03  HDC001pr08c17       
 HD   C      1   4.37500E+03   8.12500E+03  HDC001pr08c18       
 HD   C      1   4.62500E+03   8.12500E+03  HDC001pr08c19       
 HD   C      1   4.87500E+03   8.12500E+03  HDC001pr08c20       
 HD   C      1   1.25000E+02   7.87500E+03  HDC001pr09c01       
 HD   C      1   3.75000E+02   7.87500E+03  HDC001pr09c02       
 HD   C      1   6.25000E+02   7.87500E+03  HDC001pr09c03       
 HD   C      1   8.75000E+02   7.87500E+03  HDC001pr09c04       
 HD   C      1   1.87500E+03   7.87500E+03  HDC001pr09c08       
 HD   C      1   2.12500E+03   7.87500E+03  HDC001pr09c09       
 HD   C      1   2.37500E+03   7.87500E+03  HDC001pr09c10       
 HD   C      1   2.62500E+03   7.87500E+03  HDC001pr09c11       
 HD   C      1   2.87500E+03   7.87500E+03  HDC001pr09c12       
 HD   C      1   3.12500E+03   7.87500E+03  HDC001pr09c13       
 HD   C      1   3.37500E+03   7.87500E+03  HDC001pr09c14       
 HD   C      1   3.62500E+03   7.87500E+03  HDC001pr09c15       
 HD   C      1   3.87500E+03   7.87500E+03  HDC001pr09c16       
 HD   C      1   4.12500E+03   7.87500E+03  HDC001pr09c17       
 HD   C      1   4.37500E+03   7.87500E+03  HDC001pr09c18       
 HD   C      1   4.62500E+03   7.87500E+03  HDC001pr09c19       
 HD   C      1   4.87500E+03   7.87500E+03  HDC001pr09c20       
 HD   C      1   1.25000E+02   7.62500E+03  HDC001pr10c01       
 HD   C      1   3.75000E+02   7.62500E+03  HDC001cr10c02       
 HD   C      1   3.75000E+02   7.62500E+03  HDC001pr10c02       
 HD   C      1   6.25000E+02   7.62500E+03  HDC001pr10c03       
 HD   C      1   8.75000E+02   7.62500E+03  HDC001pr10c04       
 HD   C      1   2.12500E+03   7.62500E+03  HDC001pr10c09       
 HD   C      1   2.37500E+03   7.62500E+03  HDC001pr10c10       
 HD   C      1   2.62500E+03   7.62500E+03  HDC001pr10c11       
 HD   C      1   2.87500E+03   7.62500E+03  HDC001pr10c12       
 HD   C      1   3.12500E+03   7.62500E+03  HDC001pr10c13       
 HD   C      1   3.37500E+03   7.62500E+03  HDC001pr10c14       
 HD   C      1   3.62500E+03   7.62500E+03  HDC001pr10c15       
 HD   C      1   3.87500E+03   7.62500E+03  HDC001pr10c16       
 HD   C      1   4.12500E+03   7.62500E+03  HDC001pr10c17       
 HD   C      1   4.37500E+03   7.62500E+03  HDC001pr10c18       
 HD   C      1   4.62500E+03   7.62500E+03  HDC001pr10c19       
 HD   C      1   4.87500E+03   7.62500E+03  HDC001pr10c20       
 HD   C      1   1.25000E+02   7.37500E+03  HDC001pr11c01       
 HD   C      1   3.75000E+02   7.37500E+03  HDC001pr11c02       
 HD   C      1   6.25000E+02   7.37500E+03  HDC001pr11c03       
 HD   C      1   8.75000E+02   7.37500E+03  HDC001pr11c04       
 HD   C      1   2.12500E+03   7.37500E+03  HDC001pr11c09       
 HD   C      1   2.37500E+03   7.37500E+03  HDC001pr11c10       
 HD   C      1   2.62500E+03   7.37500E+03  HDC001pr11c11       
 HD   C      1   2.87500E+03   7.37500E+03  HDC001pr11c12       
 HD   C      1   3.12500E+03   7.37500E+03  HDC001pr11c13       
 HD   C      1   3.37500E+03   7.37500E+03  HDC001pr11c14       
 HD   C      1   3.62500E+03   7.37500E+03  HDC001pr11c15       
 HD   C      1   3.87500E+03   7.37500E+03  HDC001pr11c16       
 HD   C      1   4.12500E+03   7.37500E+03  HDC001pr11c17       
 HD   C      1   4.37500E+03   7.37500E+03  HDC001pr11c18       
 HD   C      1   4.62500E+03   7.37500E+03  HDC001pr11c19       
 HD   C      1   4.87500E+03   7.37500E+03  HDC001pr11c20       
 HD   C      1   1.25000E+02   7.12500E+03  HDC001pr12c01       
 HD   C      1   3.75000E+02   7.12500E+03  HDC001pr12c02       
 HD   C      1   6.25000E+02   7.12500E+03  HDC001pr12c03       
 HD   C      1   8.75000E+02   7.12500E+03  HDC001pr12c04       
 HD   C      1   2.12500E+03   7.12500E+03  HDC001pr12c09       
 HD   C      1   2.37500E+03   7.12500E+03  HDC001pr12c10       
 HD   C      1   2.62500E+03   7.12500E+03  HDC001pr12c11       
 HD   C      1   2.87500E+03   7.12500E+03  HDC001pr12c12       
 HD   C      1   3.12500E+03   7.12500E+03  HDC001pr12c13       
 HD   C      1   3.37500E+03   7.12500E+03  HDC001pr12c14       
 HD   C      1   3.62500E+03   7.12500E+03  HDC001pr12c15       
 HD   C      1   3.87500E+03   7.12500E+03  HDC001pr12c16       
 HD   C      1   4.12500E+03   7.12500E+03  HDC001pr12c17       
 HD   C      1   4.37500E+03   7.12500E+03  HDC001pr12c18       
 HD   C      1   4.62500E+03   7.12500E+03  HDC001pr12c19       
 HD   C      1   4.87500E+03   7.12500E+03  HDC001pr12c20       
 HD   C      1   1.25000E+02   6.87500E+03  HDC001pr13c01       
 HD   C      1   3.75000E+02   6.87500E+03  HDC001pr13c02       
 HD   C      1   6.25000E+02   6.87500E+03  HDC001pr13c03       
 HD   C      1   8.75000E+02   6.87500E+03  HDC001pr13c04       
 HD   C      1   2.12500E+03   6.87500E+03  HDC001pr13c09       
 HD   C      1   2.37500E+03   6.87500E+03  HDC001pr13c10       
 HD   C      1   2.62500E+03   6.87500E+03  HDC001pr13c11       
 HD   C      1   2.87500E+03   6.87500E+03  HDC001pr13c12       
 HD   C      1   3.12500E+03   6.87500E+03  HDC001pr13c13       
 HD   C      1   3.37500E+03   6.87500E+03  HDC001pr13c14       
 HD   C      1   3.62500E+03   6.87500E+03  HDC001pr13c15       
 HD   C      1   3.87500E+03   6.87500E+03  HDC001pr13c16       
 HD   C      1   4.12500E+03   6.87500E+03  HDC001pr13c17       
 HD   C      1   4.37500E+03   6.87500E+03  HDC001pr13c18       
 HD   C      1   4.62500E+03   6.87500E+03  HDC001pr13c19       
 HD   C      1   4.87500E+03   6.87500E+03  HDC001pr13c20       
 HD   C      1   1.25000E+02   6.62500E+03  HDC001pr14c01       
 HD   C      1   3.75000E+02   6.62500E+03  HDC001pr14c02       
 HD   C      1   6.25000E+02   6.62500E+03  HDC001pr14c03       
 HD   C      1   8.75000E+02   6.62500E+03  HDC001pr14c04       
 HD   C      1   2.12500E+03   6.62500E+03  HDC001pr14c09       
 HD   C      1   2.37500E+03   6.62500E+03  HDC001pr14c10       
 HD   C      1   2.62500E+03   6.62500E+03  HDC001cr14c11       
 HD   C      1   2.62500E+03   6.62500E+03  HDC001pr14c11       
 HD   C      1   2.87500E+03   6.62500E+03  HDC001pr14c12       
 HD   C      1   3.12500E+03   6.62500E+03  HDC001pr14c13       
 HD   C      1   3.37500E+03   6.62500E+03  HDC001pr14c14       
 HD   C      1   3.62500E+03   6.62500E+03  HDC001pr14c15       
 HD   C      1   3.87500E+03   6.62500E+03  HDC001pr14c16       
 HD   C      1   4.12500E+03   6.62500E+03  HDC001pr14c17       
 HD   C      1   4.37500E+03   6.62500E+03  HDC001pr14c18       
 HD   C      1   4.62500E+03   6.62500E+03  HDC001pr14c19       
 HD   C      1   4.87500E+03   6.62500E+03  HDC001pr14c20       
 HD   C      1   1.25000E+02   6.37500E+03  HDC001pr15c01       
 HD   C      1   3.75000E+02   6.37500E+03  HDC001pr15c02       
 HD   C      1   6.25000E+02   6.37500E+03  HDC001pr15c03       
 HD   C      1   8.75000E+02   6.37500E+03  HDC001pr15c04       
 HD   C      1   2.12500E+03   6.37500E+03  HDC001pr15c09       
 HD   C      1   2.37500E+03   6.37500E+03  HDC001pr15c10       
 HD   C      1   2.62500E+03   6.37500E+03  HDC001pr15c11       
 HD   C      1   2.87500E+03   6.37500E+03  HDC001pr15c12       
 HD   C      1   3.12500E+03   6.37500E+03  HDC001pr15c13       
 HD   C      1   3.37500E+03   6.37500E+03  HDC001pr15c14       
 HD   C      1   3.62500E+03   6.37500E+03  HDC001pr15c15       
 HD   C      1   3.87500E+03   6.37500E+03  HDC001pr15c16       
 HD   C      1   4.12500E+03   6.37500E+03  HDC001pr15c17       
 HD   C      1   4.37500E+03   6.37500E+03  HDC001pr15c18       
 HD   C      1   4.62500E+03   6.37500E+03  HDC001pr15c19       
 HD   C      1   4.87500E+03   6.37500E+03  HDC001pr15c20       
 HD   C      1   1.25000E+02   6.12500E+03  HDC001pr16c01       
 HD   C      1   3.75000E+02   6.12500E+03  HDC001pr16c02       
 HD   C      1   6.25000E+02   6.12500E+03  HDC001pr16c03       
 HD   C      1   8.75000E+02   6.12500E+03  HDC001pr16c04       
 HD   C      1   2.12500E+03   6.12500E+03  HDC001pr16c09       
 HD   C      1   2.37500E+03   6.12500E+03  HDC001pr16c10       
 HD   C      1   2.62500E+03   6.12500E+03  HDC001pr16c11       
 HD   C      1   2.87500E+03   6.12500E+03  HDC001pr16c12       
 HD   C      1   3.12500E+03   6.12500E+03  HDC001pr16c13       
 HD   C      1   3.37500E+03   6.12500E+03  HDC001pr16c14       
 HD   C      1   3.62500E+03   6.12500E+03  HDC001pr16c15       
 HD   C      1   3.87500E+03   6.12500E+03  HDC001pr16c16       
 HD   C      1   4.12500E+03   6.12500E+03  HDC001cr16c17       
 HD   C      1   4.12500E+03   6.12500E+03  HDC001fr16c17       
 HD   C      1   4.37500E+03   6.12500E+03  HDC001pr16c18       
 HD   C      1   4.62500E+03   6.12500E+03  HDC001pr16c19       
 HD   C      1   4.87500E+03   6.12500E+03  HDC001pr16c20       
 HD   C      1   1.25000E+02   5.87500E+03  HDC001pr17c01       
 HD   C      1   3.75000E+02   5.87500E+03  HDC001pr17c02       
 HD   C      1   6.25000E+02   5.87500E+03  HDC001pr17c03       
 HD   C      1   8.75000E+02   5.87500E+03  HDC001pr17c04       
 HD   C      1   2.12500E+03   5.87500E+03  HDC001pr17c09       
 HD   C      1   2.37500E+03   5.87500E+03  HDC001pr17c10       
 HD   C      1   2.62500E+03   5.87500E+03  HDC001pr17c11       
 HD   C      1   2.87500E+03   5.87500E+03  HDC001pr17c12       
 HD   C      1   3.12500E+03   5.87500E+03  HDC001pr17c13       
 HD   C      1   3.37500E+03   5.87500E+03  HDC001pr17c14       
 HD   C      1   3.62500E+03   5.87500E+03  HDC001pr17c15       
 HD   C      1   3.87500E+03   5.87500E+03  HDC001pr17c16       
 HD   C      1   4.12500E+03   5.87500E+03  HDC001pr17c17       
 HD   C      1   4.37500E+03   5.87500E+03  HDC001pr17c18       
 HD   C      1   4.62500E+03   5.87500E+03  HDC001pr17c19       
 HD   C      1   4.87500E+03   5.87500E+03  HDC001pr17c20       
 HD   C      1   1.25000E+02   5.62500E+03  HDC001pr18c01       
 HD   C      1   3.75000E+02   5.62500E+03  HDC001pr18c02       
 HD   C      1   6.25000E+02   5.62500E+03  HDC001pr18c03       
 HD   C      1   8.75000E+02   5.62500E+03  HDC001pr18c04       
 HD   C      1   2.12500E+03   5.62500E+03  HDC001pr18c09       
 HD   C      1   2.37500E+03   5.62500E+03  HDC001pr18c10       
 HD   C      1   2.62500E+03   5.62500E+03  HDC001pr18c11       
 HD   C      1   2.87500E+03   5.62500E+03  HDC001pr18c12       
 HD   C      1   3.12500E+03   5.62500E+03  HDC001pr18c13       
 HD   C      1   3.37500E+03   5.62500E+03  HDC001pr18c14       
 HD   C      1   3.62500E+03   5.62500E+03  HDC001pr18c15       
 HD   C      1   3.87500E+03   5.62500E+03  HDC001pr18c16       
 HD   C      1   4.12500E+03   5.62500E+03  HDC001pr18c17       
 HD   C      1   4.37500E+03   5.62500E+03  HDC001pr18c18       
 HD   C      1   4.62500E+03   5.62500E+03  HDC001pr18c19       
 HD   C      1   4.87500E+03   5.62500E+03  HDC001pr18c20       
 HD   C      1   1.25000E+02   5.37500E+03  HDC001pr19c01       
 HD   C      1   3.75000E+02   5.37500E+03  HDC001pr19c02       
 HD   C      1   6.25000E+02   5.37500E+03  HDC001pr19c03       
 HD   C      1   8.75000E+02   5.37500E+03  HDC001pr19c04       
 HD   C      1   2.12500E+03   5.37500E+03  HDC001pr19c09       
 HD   C      1   2.37500E+03   5.37500E+03  HDC001pr19c10       
 HD   C      1   2.62500E+03   5.37500E+03  HDC001pr19c11       
 HD   C      1   2.87500E+03   5.37500E+03  HDC001pr19c12       
 HD   C      1   3.12500E+03   5.37500E+03  HDC001pr19c13       
 HD   C      1   3.37500E+03   5.37500E+03  HDC001pr19c14       
 HD   C      1   3.62500E+03   5.37500E+03  HDC001pr19c15       
 HD   C      1   3.87500E+03   5.37500E+03  HDC001pr19c16       
 HD   C      1   4.12500E+03   5.37500E+03  HDC001pr19c17       
 HD   C      1   4.37500E+03   5.37500E+03  HDC001pr19c18       
 HD   C      1   4.62500E+03   5.37500E+03  HDC001pr19c19       
 HD   C      1   4.87500E+03   5.37500E+03  HDC001pr19c20       
 HD   C      1   1.25000E+02   5.12500E+03  HDC001pr20c01       
 HD   C      1   3.75000E+02   5.12500E+03  HDC001pr20c02       
 HD   C      1   6.25000E+02   5.12500E+03  HDC001pr20c03       
 HD   C      1   8.75000E+02   5.12500E+03  HDC001pr20c04       
 HD   C      1   2.12500E+03   5.12500E+03  HDC001pr20c09       
 HD   C      1   2.37500E+03   5.12500E+03  HDC001pr20c10       
 HD   C      1   2.62500E+03   5.12500E+03  HDC001pr20c11       
 HD   C      1   2.87500E+03   5.12500E+03  HDC001pr20c12       
 HD   C      1   3.12500E+03   5.12500E+03  HDC001pr20c13       
 HD   C      1   3.37500E+03   5.12500E+03  HDC001pr20c14       
 HD   C      1   3.62500E+03   5.12500E+03  HDC001pr20c15       
 HD   C      1   3.87500E+03   5.12500E+03  HDC001pr20c16       
 HD   C      1   4.12500E+03   5.12500E+03  HDC001pr20c17       
 HD   C      1   4.37500E+03   5.12500E+03  HDC001pr20c18       
 HD   C      1   4.62500E+03   5.12500E+03  HDC001pr20c19       
 HD   C      1   4.87500E+03   5.12500E+03  HDC001pr20c20       
 HD   C      1   1.25000E+02   4.87500E+03  HDC001pr21c01       
 HD   C      1   3.75000E+02   4.87500E+03  HDC001pr21c02       
 HD   C      1   6.25000E+02   4.87500E+03  HDC001pr21c03       
 HD   C      1   8.75000E+02   4.87500E+03  HDC001pr21c04       
 HD   C      1   2.12500E+03   4.87500E+03  HDC001pr21c09       
 HD   C      1   2.37500E+03   4.87500E+03  HDC001pr21c10       
 HD   C      1   2.62500E+03   4.87500E+03  HDC001pr21c11       
 HD   C      1   2.87500E+03   4.87500E+03  HDC001pr21c12       
 HD   C      1   3.12500E+03   4.87500E+03  HDC001pr21c13       
 HD   C      1   3.37500E+03   4.87500E+03  HDC001pr21c14       
 HD   C      1   3.62500E+03   4.87500E+03  HDC001pr21c15       
 HD   C      1   3.87500E+03   4.87500E+03  HDC001pr21c16       
 HD   C      1   4.12500E+03   4.87500E+03  HDC001pr21c17       
 HD   C      1   4.37500E+03   4.87500E+03  HDC001pr21c18       
 HD   C      1   4.62500E+03   4.87500E+03  HDC001pr21c19       
 HD   C      1   4.87500E+03   4.87500E+03  HDC001pr21c20       
 HD   C      1   1.25000E+02   4.62500E+03  HDC001pr22c01       
 HD   C      1   3.75000E+02   4.62500E+03  HDC001pr22c02       
 HD   C      1   6.25000E+02   4.62500E+03  HDC001pr22c03       
 HD   C      1   8.75000E+02   4.62500E+03  HDC001pr22c04       
 HD   C      1   1.62500E+03   4.62500E+03  HDC001pr22c07       
 HD   C      1   1.87500E+03   4.62500E+03  HDC001pr22c08       
 HD   C      1   2.12500E+03   4.62500E+03  HDC001pr22c09       
 HD   C      1   2.37500E+03   4.62500E+03  HDC001pr22c10       
 HD   C      1   2.62500E+03   4.62500E+03  HDC001cr22c11       
 HD   C      1   2.62500E+03   4.62500E+03  HDC001pr22c11       
 HD   C      1   2.87500E+03   4.62500E+03  HDC001pr22c12       
 HD   C      1   3.12500E+03   4.62500E+03  HDC001pr22c13       
 HD   C      1   3.37500E+03   4.62500E+03  HDC001pr22c14       
 HD   C      1   3.62500E+03   4.62500E+03  HDC001pr22c15       
 HD   C      1   3.87500E+03   4.62500E+03  HDC001pr22c16       
 HD   C      1   4.12500E+03   4.62500E+03  HDC001pr22c17       
 HD   C      1   4.37500E+03   4.62500E+03  HDC001pr22c18       
 HD   C      1   4.62500E+03   4.62500E+03  HDC001pr22c19       
 HD   C      1   4.87500E+03   4.62500E+03  HDC001pr22c20       
 HD   C      1   1.25000E+02   4.37500E+03  HDC001pr23c01       
 HD   C      1   3.75000E+02   4.37500E+03  HDC001pr23c02       
 HD   C      1   6.25000E+02   4.37500E+03  HDC001pr23c03       
 HD   C      1   8.75000E+02   4.37500E+03  HDC001pr23c04       
 HD   C      1   1.12500E+03   4.37500E+03  HDC001pr23c05       
 HD   C      1   1.62500E+03   4.37500E+03  HDC001pr23c07       
 HD   C      1   1.87500E+03   4.37500E+03  HDC001pr23c08       
 HD   C      1   2.12500E+03   4.37500E+03  HDC001pr23c09       
 HD   C      1   2.37500E+03   4.37500E+03  HDC001pr23c10       
 HD   C      1   2.62500E+03   4.37500E+03  HDC001pr23c11       
 HD   C      1   2.87500E+03   4.37500E+03  HDC001pr23c12       
 HD   C      1   3.12500E+03   4.37500E+03  HDC001pr23c13       
 HD   C      1   3.37500E+03   4.37500E+03  HDC001pr23c14       
 HD   C      1   3.62500E+03   4.37500E+03  HDC001pr23c15       
 HD   C      1   3.87500E+03   4.37500E+03  HDC001cr23c16       
 HD   C      1   3.87500E+03   4.37500E+03  HDC001pr23c16       
 HD   C      1   4.12500E+03   4.37500E+03  HDC001pr23c17       
 HD   C      1   4.37500E+03   4.37500E+03  HDC001pr23c18       
 HD   C      1   4.62500E+03   4.37500E+03  HDC001pr23c19       
 HD   C      1   4.87500E+03   4.37500E+03  HDC001pr23c20       
 HD   C      1   1.25000E+02   4.12500E+03  HDC001pr24c01       
 HD   C      1   3.75000E+02   4.12500E+03  HDC001pr24c02       
 HD   C      1   6.25000E+02   4.12500E+03  HDC001pr24c03       
 HD   C      1   8.75000E+02   4.12500E+03  HDC001pr24c04       
 HD   C      1   1.12500E+03   4.12500E+03  HDC001pr24c05       
 HD   C      1   1.37500E+03   4.12500E+03  HDC001pr24c06       
 HD   C      1   1.62500E+03   4.12500E+03  HDC001pr24c07       
 HD   C      1   1.87500E+03   4.12500E+03  HDC001pr24c08       
 HD   C      1   2.12500E+03   4.12500E+03  HDC001pr24c09       
 HD   C      1   2.37500E+03   4.12500E+03  HDC001pr24c10       
 HD   C      1   2.62500E+03   4.12500E+03  HDC001pr24c11       
 HD   C      1   2.87500E+03   4.12500E+03  HDC001pr24c12       
 HD   C      1   3.12500E+03   4.12500E+03  HDC001pr24c13       
 HD   C      1   3.37500E+03   4.12500E+03  HDC001pr24c14       
 HD   C      1   3.62500E+03   4.12500E+03  HDC001pr24c15       
 HD   C      1   3.87500E+03   4.12500E+03  HDC001pr24c16       
 HD   C      1   4.12500E+03   4.12500E+03  HDC001pr24c17       
 HD   C      1   4.37500E+03   4.12500E+03  HDC001pr24c18       
 HD   C      1   4.62500E+03   4.12500E+03  HDC001pr24c19       
 HD   C      1   4.87500E+03   4.12500E+03  HDC001pr24c20       
 HD   C      1   1.25000E+02   3.87500E+03  HDC001pr25c01       
 HD   C      1   3.75000E+02   3.87500E+03  HDC001pr25c02       
 HD   C      1   6.25000E+02   3.87500E+03  HDC001pr25c03       
 HD   C      1   8.75000E+02   3.87500E+03  HDC001pr25c04       
 HD   C      1   1.12500E+03   3.87500E+03  HDC001cr25c05       
 HD   C      1   1.12500E+03   3.87500E+03  HDC001pr25c05       
 HD   C      1   1.37500E+03   3.87500E+03  HDC001pr25c06       
 HD   C      1   1.62500E+03   3.87500E+03  HDC001pr25c07       
 HD   C      1   1.87500E+03   3.87500E+03  HDC001pr25c08       
 HD   C      1   2.12500E+03   3.87500E+03  HDC001pr25c09       
 HD   C      1   2.37500E+03   3.87500E+03  HDC001pr25c10       
 HD   C      1   2.62500E+03   3.87500E+03  HDC001pr25c11       
 HD   C      1   2.87500E+03   3.87500E+03  HDC001pr25c12       
 HD   C      1   3.12500E+03   3.87500E+03  HDC001pr25c13       
 HD   C      1   3.37500E+03   3.87500E+03  HDC001pr25c14       
 HD   C      1   3.62500E+03   3.87500E+03  HDC001pr25c15       
 HD   C      1   3.87500E+03   3.87500E+03  HDC001pr25c16       
 HD   C      1   4.12500E+03   3.87500E+03  HDC001pr25c17       
 HD   C      1   4.37500E+03   3.87500E+03  HDC001pr25c18       
 HD   C      1   4.62500E+03   3.87500E+03  HDC001pr25c19       
 HD   C      1   4.87500E+03   3.87500E+03  HDC001pr25c20       
 HD   C      1   1.25000E+02   3.62500E+03  HDC001pr26c01       
 HD   C      1   3.75000E+02   3.62500E+03  HDC001pr26c02       
 HD   C      1   6.25000E+02   3.62500E+03  HDC001pr26c03       
 HD   C      1   8.75000E+02   3.62500E+03  HDC001pr26c04       
 HD   C      1   1.12500E+03   3.62500E+03  HDC001pr26c05       
 HD   C      1   1.37500E+03   3.62500E+03  HDC001pr26c06       
 HD   C      1   1.62500E+03   3.62500E+03  HDC001pr26c07       
 HD   C      1   1.87500E+03   3.62500E+03  HDC001pr26c08       
 HD   C      1   2.12500E+03   3.62500E+03  HDC001pr26c09       
 HD   C      1   2.37500E+03   3.62500E+03  HDC001pr26c10       
 HD   C      1   2.62500E+03   3.62500E+03  HDC001pr26c11       
 HD   C      1   2.87500E+03   3.62500E+03  HDC001pr26c12       
 HD   C      1   3.12500E+03   3.62500E+03  HDC001pr26c13       
 HD   C      1   3.37500E+03   3.62500E+03  HDC001pr26c14       
 HD   C      1   3.62500E+03   3.62500E+03  HDC001pr26c15       
 HD   C      1   3.87500E+03   3.62500E+03  HDC001pr26c16       
 HD   C      1   4.12500E+03   3.62500E+03  HDC001pr26c17       
 HD   C      1   4.37500E+03   3.62500E+03  HDC001pr26c18       
 HD   C      1   4.62500E+03   3.62500E+03  HDC001pr26c19       
 HD   C      1   4.87500E+03   3.62500E+03  HDC001pr26c20       
 HD   C      1   1.25000E+02   3.37500E+03  HDC001pr27c01       
 HD   C      1   3.75000E+02   3.37500E+03  HDC001pr27c02       
 HD   C      1   6.25000E+02   3.37500E+03  HDC001pr27c03       
 HD   C      1   8.75000E+02   3.37500E+03  HDC001pr27c04       
 HD   C      1   1.12500E+03   3.37500E+03  HDC001pr27c05       
 HD   C      1   1.37500E+03   3.37500E+03  HDC001pr27c06       
 HD   C      1   1.62500E+03   3.37500E+03  HDC001cr27c07       
 HD   C      1   1.62500E+03   3.37500E+03  HDC001pr27c07       
 HD   C      1   1.87500E+03   3.37500E+03  HDC001pr27c08       
 HD   C      1   2.12500E+03   3.37500E+03  HDC001pr27c09       
 HD   C      1   2.37500E+03   3.37500E+03  HDC001pr27c10       
 HD   C      1   2.62500E+03   3.37500E+03  HDC001pr27c11       
 HD   C      1   2.87500E+03   3.37500E+03  HDC001pr27c12       
 HD   C      1   3.12500E+03   3.37500E+03  HDC001pr27c13       
 HD   C      1   3.37500E+03   3.37500E+03  HDC001pr27c14       
 HD   C      1   3.62500E+03   3.37500E+03  HDC001pr27c15       
 HD   C      1   3.87500E+03   3.37500E+03  HDC001pr27c16       
 HD   C      1   4.12500E+03   3.37500E+03  HDC001pr27c17       
 HD   C      1   4.37500E+03   3.37500E+03  HDC001pr27c18       
 HD   C      1   4.62500E+03   3.37500E+03  HDC001pr27c19       
 HD   C      1   4.87500E+03   3.37500E+03  HDC001pr27c20       
 HD   C      1   1.25000E+02   3.12500E+03  HDC001pr28c01       
 HD   C      1   3.75000E+02   3.12500E+03  HDC001pr28c02       
 HD   C      1   6.25000E+02   3.12500E+03  HDC001pr28c03       
 HD   C      1   8.75000E+02   3.12500E+03  HDC001pr28c04       
 HD   C      1   1.12500E+03   3.12500E+03  HDC001pr28c05       
 HD   C      1   1.37500E+03   3.12500E+03  HDC001pr28c06       
 HD   C      1   1.62500E+03   3.12500E+03  HDC001pr28c07       
 HD   C      1   1.87500E+03   3.12500E+03  HDC001pr28c08       
 HD   C      1   2.12500E+03   3.12500E+03  HDC001pr28c09       
 HD   C      1   2.37500E+03   3.12500E+03  HDC001pr28c10       
 HD   C      1   2.62500E+03   3.12500E+03  HDC001pr28c11       
 HD   C      1   2.87500E+03   3.12500E+03  HDC001pr28c12       
 HD   C      1   3.12500E+03   3.12500E+03  HDC001pr28c13       
 HD   C      1   3.37500E+03   3.12500E+03  HDC001pr28c14       
 HD   C      1   3.62500E+03   3.12500E+03  HDC001pr28c15       
 HD   C      1   3.87500E+03   3.12500E+03  HDC001pr28c16       
 HD   C      1   4.12500E+03   3.12500E+03  HDC001pr28c17       
 HD   C      1   4.37500E+03   3.12500E+03  HDC001pr28c18       
 HD   C      1   4.62500E+03   3.12500E+03  HDC001pr28c19       
 HD   C      1   4.87500E+03   3.12500E+03  HDC001pr28c20       
 HD   C      1   1.25000E+02   2.87500E+03  HDC001pr29c01       
 HD   C      1   3.75000E+02   2.87500E+03  HDC001pr29c02       
 HD   C      1   6.25000E+02   2.87500E+03  HDC001pr29c03       
 HD   C      1   8.75000E+02   2.87500E+03  HDC001pr29c04       
 HD   C      1   1.12500E+03   2.87500E+03  HDC001pr29c05       
 HD   C      1   1.37500E+03   2.87500E+03  HDC001pr29c06       
 HD   C      1   1.62500E+03   2.87500E+03  HDC001pr29c07       
 HD   C      1   1.87500E+03   2.87500E+03  HDC001pr29c08       
 HD   C      1   2.12500E+03   2.87500E+03  HDC001pr29c09       
 HD   C      1   2.37500E+03   2.87500E+03  HDC001pr29c10       
 HD   C      1   2.62500E+03   2.87500E+03  HDC001pr29c11       
 HD   C      1   2.87500E+03   2.87500E+03  HDC001pr29c12       
 HD   C      1   3.12500E+03   2.87500E+03  HDC001pr29c13       
 HD   C      1   3.37500E+03   2.87500E+03  HDC001pr29c14       
 HD   C      1   3.62500E+03   2.87500E+03  HDC001pr29c15       
 HD   C      1   3.87500E+03   2.87500E+03  HDC001pr29c16       
 HD   C      1   4.12500E+03   2.87500E+03  HDC001pr29c17       
 HD   C      1   4.37500E+03   2.87500E+03  HDC001pr29c18       
 HD   C      1   4.62500E+03   2.87500E+03  HDC001pr29c19       
 HD   C      1   4.87500E+03   2.87500E+03  HDC001pr29c20       
 HD   C      1   1.25000E+02   2.62500E+03  HDC001pr30c01       
 HD   C      1   3.75000E+02   2.62500E+03  HDC001pr30c02       
 HD   C      1   6.25000E+02   2.62500E+03  HDC001pr30c03       
 HD   C      1   8.75000E+02   2.62500E+03  HDC001pr30c04       
 HD   C      1   1.12500E+03   2.62500E+03  HDC001pr30c05       
 HD   C      1   1.37500E+03   2.62500E+03  HDC001pr30c06       
 HD   C      1   1.62500E+03   2.62500E+03  HDC001pr30c07       
 HD   C      1   1.87500E+03   2.62500E+03  HDC001pr30c08       
 HD   C      1   2.12500E+03   2.62500E+03  HDC001pr30c09       
 HD   C      1   2.37500E+03   2.62500E+03  HDC001pr30c10       
 HD   C      1   2.62500E+03   2.62500E+03  HDC001pr30c11       
 HD   C      1   2.87500E+03   2.62500E+03  HDC001pr30c12       
 HD   C      1   3.12500E+03   2.62500E+03  HDC001pr30c13       
 HD   C      1   3.37500E+03   2.62500E+03  HDC001pr30c14       
 HD   C      1   3.62500E+03   2.62500E+03  HDC001pr30c15       
 HD   C      1   3.87500E+03   2.62500E+03  HDC001cr30c16       
 HD   C      1   3.87500E+03   2.62500E+03  HDC001pr30c16       
 HD   C      1   4.12500E+03   2.62500E+03  HDC001pr30c17       
 HD   C      1   4.37500E+03   2.62500E+03  HDC001pr30c18       
 HD   C      1   4.62500E+03   2.62500E+03  HDC001pr30c19       
 HD   C      1   4.87500E+03   2.62500E+03  HDC001pr30c20       
 HD   C      1   1.25000E+02   2.37500E+03  HDC001pr31c01       
 HD   C      1   3.75000E+02   2.37500E+03  HDC001pr31c02       
 HD   C      1   6.25000E+02   2.37500E+03  HDC001pr31c03       
 HD   C      1   8.75000E+02   2.37500E+03  HDC001pr31c04       
 HD   C      1   1.12500E+03   2.37500E+03  HDC001pr31c05       
 HD   C      1   1.37500E+03   2.37500E+03  HDC001pr31c06       
 HD   C      1   1.62500E+03   2.37500E+03  HDC001pr31c07       
 HD   C      1   1.87500E+03   2.37500E+03  HDC001pr31c08       
 HD   C      1   2.12500E+03   2.37500E+03  HDC001pr31c09       
 HD   C      1   2.37500E+03   2.37500E+03  HDC001pr31c10       
 HD   C      1   2.62500E+03   2.37500E+03  HDC001pr31c11       
 HD   C      1   2.87500E+03   2.37500E+03  HDC001pr31c12       
 HD   C      1   3.12500E+03   2.37500E+03  HDC001pr31c13       
 HD   C      1   3.37500E+03   2.37500E+03  HDC001pr31c14       
 HD   C      1   3.62500E+03   2.37500E+03  HDC001pr31c15       
 HD   C      1   3.87500E+03   2.37500E+03  HDC001pr31c16       
 HD   C      1   4.12500E+03   2.37500E+03  HDC001pr31c17       
 HD   C      1   4.37500E+03   2.37500E+03  HDC001pr31c18       
 HD   C      1   4.62500E+03   2.37500E+03  HDC001pr31c19       
 HD   C      1   4.87500E+03   2.37500E+03  HDC001pr31c20       
 HD   C      1   1.25000E+02   2.12500E+03  HDC001pr32c01       
 HD   C      1   3.75000E+02   2.12500E+03  HDC001pr32c02       
 HD   C      1   6.25000E+02   2.12500E+03  HDC001pr32c03       
 HD   C      1   8.75000E+02   2.12500E+03  HDC001pr32c04       
 HD   C      1   1.12500E+03   2.12500E+03  HDC001pr32c05       
 HD   C      1   1.37500E+03   2.12500E+03  HDC001pr32c06       
 HD   C      1   1.62500E+03   2.12500E+03  HDC001pr32c07       
 HD   C      1   1.87500E+03   2.12500E+03  HDC001pr32c08       
 HD   C      1   2.12500E+03   2.12500E+03  HDC001pr32c09       
 HD   C      1   2.37500E+03   2.12500E+03  HDC001pr32c10       
 HD   C      1   2.62500E+03   2.12500E+03  HDC001pr32c11       
 HD   C      1   2.87500E+03   2.12500E+03  HDC001pr32c12       
 HD   C      1   3.12500E+03   2.12500E+03  HDC001pr32c13       
 HD   C      1   3.37500E+03   2.12500E+03  HDC001pr32c14       
 HD   C      1   3.62500E+03   2.12500E+03  HDC001pr32c15       
 HD   C      1   3.87500E+03   2.12500E+03  HDC001pr32c16       
 HD   C      1   4.12500E+03   2.12500E+03  HDC001pr32c17       
 HD   C      1   4.37500E+03   2.12500E+03  HDC001pr32c18       
 HD   C      1   4.62500E+03   2.12500E+03  HDC001pr32c19       
 HD   C      1   4.87500E+03   2.12500E+03  HDC001pr32c20       
 HD   C      1   3.75000E+02   1.87500E+03  HDC001pr33c02       
 HD   C      1   6.25000E+02   1.87500E+03  HDC001pr33c03       
 HD   C      1   8.75000E+02   1.87500E+03  HDC001pr33c04       
 HD   C      1   1.12500E+03   1.87500E+03  HDC001pr33c05       
 HD   C      1   1.37500E+03   1.87500E+03  HDC001pr33c06       
 HD   C      1   1.62500E+03   1.87500E+03  HDC001pr33c07       
 HD   C      1   1.87500E+03   1.87500E+03  HDC001pr33c08       
 HD   C      1   2.12500E+03   1.87500E+03  HDC001pr33c09       
 HD   C      1   2.37500E+03   1.87500E+03  HDC001pr33c10       
 HD   C      1   2.62500E+03   1.87500E+03  HDC001pr33c11       
 HD   C      1   2.87500E+03   1.87500E+03  HDC001pr33c12       
 HD   C      1   3.12500E+03   1.87500E+03  HDC001pr33c13       
 HD   C      1   3.37500E+03   1.87500E+03  HDC001pr33c14       
 HD   C      1   3.62500E+03   1.87500E+03  HDC001pr33c15       
 HD   C      1   3.87500E+03   1.87500E+03  HDC001pr33c16       
 HD   C      1   4.12500E+03   1.87500E+03  HDC001pr33c17       
 HD   C      1   4.37500E+03   1.87500E+03  HDC001pr33c18       
 HD   C      1   4.62500E+03   1.87500E+03  HDC001pr33c19       
 HD   C      1   4.87500E+03   1.87500E+03  HDC001pr33c20       
 HD   C      1   6.25000E+02   1.62500E+03  HDC001pr34c03       
 HD   C      1   8.75000E+02   1.62500E+03  HDC001pr34c04       
 HD   C      1   1.12500E+03   1.62500E+03  HDC001pr34c05       
 HD   C      1   1.37500E+03   1.62500E+03  HDC001pr34c06       
 HD   C      1   1.62500E+03   1.62500E+03  HDC001pr34c07       
 HD   C      1   1.87500E+03   1.62500E+03  HDC001cr34c08       
 HD   C      1   1.87500E+03   1.62500E+03  HDC001pr34c08       
 HD   C      1   2.12500E+03   1.62500E+03  HDC001pr34c09       
 HD   C      1   2.37500E+03   1.62500E+03  HDC001pr34c10       
 HD   C      1   2.62500E+03   1.62500E+03  HDC001pr34c11       
 HD   C      1   2.87500E+03   1.62500E+03  HDC001pr34c12       
 HD   C      1   3.12500E+03   1.62500E+03  HDC001pr34c13       
 HD   C      1   3.37500E+03   1.62500E+03  HDC001pr34c14       
 HD   C      1   3.62500E+03   1.62500E+03  HDC001pr34c15       
 HD   C      1   3.87500E+03   1.62500E+03  HDC001pr34c16       
 HD   C      1   4.12500E+03   1.62500E+03  HDC001pr34c17       
 HD   C      1   4.37500E+03   1.62500E+03  HDC001pr34c18       
 HD   C      1   4.62500E+03   1.62500E+03  HDC001pr34c19       
 HD   C      1   4.87500E+03   1.62500E+03  HDC001pr34c20       
 HD   C      1   8.75000E+02   1.37500E+03  HDC001pr35c04       
 HD   C      1   1.12500E+03   1.37500E+03  HDC001pr35c05       
 HD   C      1   1.37500E+03   1.37500E+03  HDC001pr35c06       
 HD   C      1   1.62500E+03   1.37500E+03  HDC001pr35c07       
 HD   C      1   1.87500E+03   1.37500E+03  HDC001pr35c08       
 HD   C      1   2.12500E+03   1.37500E+03  HDC001pr35c09       
 HD   C      1   2.37500E+03   1.37500E+03  HDC001pr35c10       
 HD   C      1   2.62500E+03   1.37500E+03  HDC001cr35c11       
 HD   C      1   2.62500E+03   1.37500E+03  HDC001pr35c11       
 HD   C      1   2.87500E+03   1.37500E+03  HDC001pr35c12       
 HD   C      1   3.12500E+03   1.37500E+03  HDC001pr35c13       
 HD   C      1   3.37500E+03   1.37500E+03  HDC001pr35c14       
 HD   C      1   3.62500E+03   1.37500E+03  HDC001pr35c15       
 HD   C      1   3.87500E+03   1.37500E+03  HDC001pr35c16       
 HD   C      1   4.12500E+03   1.37500E+03  HDC001pr35c17       
 HD   C      1   4.37500E+03   1.37500E+03  HDC001pr35c18       
 HD   C      1   4.62500E+03   1.37500E+03  HDC001pr35c19       
 HD   C      1   4.87500E+03   1.37500E+03  HDC001pr35c20       
 HD   C      1   1.12500E+03   1.12500E+03  HDC001pr36c05       
 HD   C      1   1.37500E+03   1.12500E+03  HDC001pr36c06       
 HD   C      1   1.62500E+03   1.12500E+03  HDC001pr36c07       
 HD   C      1   1.87500E+03   1.12500E+03  HDC001pr36c08       
 HD   C      1   2.12500E+03   1.12500E+03  HDC001pr36c09       
 HD   C      1   2.37500E+03   1.12500E+03  HDC001pr36c10       
 HD   C      1   2.62500E+03   1.12500E+03  HDC001pr36c11       
 HD   C      1   2.87500E+03   1.12500E+03  HDC001pr36c12       
 HD   C      1   3.12500E+03   1.12500E+03  HDC001pr36c13       
 HD   C      1   3.37500E+03   1.12500E+03  HDC001pr36c14       
 HD   C      1   3.62500E+03   1.12500E+03  HDC001pr36c15       
 HD   C      1   3.87500E+03   1.12500E+03  HDC001pr36c16       
 HD   C      1   4.12500E+03   1.12500E+03  HDC001pr36c17       
 HD   C      1   4.37500E+03   1.12500E+03  HDC001pr36c18       
 HD   C      1   4.62500E+03   1.12500E+03  HDC001pr36c19       
 HD   C      1   1.12500E+03   8.75000E+02  HDC001pr37c05       
 HD   C      1   1.37500E+03   8.75000E+02  HDC001pr37c06       
 HD   C      1   1.62500E+03   8.75000E+02  HDC001pr37c07       
 HD   C      1   1.87500E+03   8.75000E+02  HDC001pr37c08       
 HD   C      1   2.12500E+03   8.75000E+02  HDC001pr37c09       
 HD   C      1   2.37500E+03   8.75000E+02  HDC001pr37c10       
 HD   C      1   2.62500E+03   8.75000E+02  HDC001pr37c11       
 HD   C      1   2.87500E+03   8.75000E+02  HDC001pr37c12       
 HD   C      1   3.12500E+03   8.75000E+02  HDC001pr37c13       
 HD   C      1   3.37500E+03   8.75000E+02  HDC001pr37c14       
 HD   C      1   3.62500E+03   8.75000E+02  HDC001pr37c15       
 HD   C      1   3.87500E+03   8.75000E+02  HDC001pr37c16       
 HD   C      1   4.12500E+03   8.75000E+02  HDC001pr37c17       
 HD   C      1   4.37500E+03   8.75000E+02  HDC001pr37c18       
 HD   C      1   4.62500E+03   8.75000E+02  HDC001pr37c19       
 HD   C      1   1.37500E+03   6.25000E+02  HDC001pr38c06       
 HD   C      1   1.62500E+03   6.25000E+02  HDC001pr38c07       
 HD   C      1   1.87500E+03   6.25000E+02  HDC001pr38c08       
 HD   C      1   2.12500E+03   6.25000E+02  HDC001pr38c09       
 HD   C      1   2.37500E+03   6.25000E+02  HDC001pr38c10       
 HD   C      1   2.62500E+03   6.25000E+02  HDC001pr38c11       
 HD   C      1   2.87500E+03   6.25000E+02  HDC001pr38c12       
 HD   C      1   3.12500E+03   6.25000E+02  HDC001pr38c13       
 HD   C      1   3.37500E+03   6.25000E+02  HDC001pr38c14       
 HD   C      1   3.62500E+03   6.25000E+02  HDC001pr38c15       
 HD   C      1   3.87500E+03   6.25000E+02  HDC001pr38c16       
 HD   C      1   4.12500E+03   6.25000E+02  HDC001pr38c17       
 HD   C      1   4.37500E+03   6.25000E+02  HDC001pr38c18       
 HD   C      1   1.37500E+03   3.75000E+02  HDC001pr39c06       
 HD   C      1   1.62500E+03   3.75000E+02  HDC001pr39c07       
 HD   C      1   1.87500E+03   3.75000E+02  HDC001pr39c08       
 HD   C      1   2.12500E+03   3.75000E+02  HDC001pr39c09       
 HD   C      1   2.37500E+03   3.75000E+02  HDC001pr39c10       
 HD   C      1   2.62500E+03   3.75000E+02  HDC001pr39c11       
 HD   C      1   2.87500E+03   3.75000E+02  HDC001pr39c12       
 HD   C      1   3.12500E+03   3.75000E+02  HDC001pr39c13       
 HD   C      1   3.37500E+03   3.75000E+02  HDC001pr39c14       
 HD   C      1   3.62500E+03   3.75000E+02  HDC001pr39c15       
 HD   C      1   3.87500E+03   3.75000E+02  HDC001pr39c16       
 HD   C      1   4.12500E+03   3.75000E+02  HDC001pr39c17       
 HD   C      1   1.37500E+03   1.25000E+02  HDC001pr40c06       
 HD   C      1   1.62500E+03   1.25000E+02  HDC001pr40c07       
 HD   C      1   1.87500E+03   1.25000E+02  HDC001pr40c08       
 HD   C      1   2.12500E+03   1.25000E+02  HDC001pr40c09       
 HD   C      1   2.37500E+03   1.25000E+02  HDC001pr40c10       
 HD   C      1   2.62500E+03   1.25000E+02  HDC001pr40c11       
 HD   C      1   2.87500E+03   1.25000E+02  HDC001pr40c12       
 HD   C      1   3.12500E+03   1.25000E+02  HDC001pr40c13       
 HD   C      1   3.37500E+03   1.25000E+02  HDC001pr40c14       
 HD   C      1   3.62500E+03   1.25000E+02  HDC001pr40c15       
1
                            STRESS PERIOD NO.    1, LENGTH =   1.000000    
                            -----------------------------------------------

                              NUMBER OF TIME STEPS =     1

                               MULTIPLIER FOR DELT =     1.000

                            INITIAL TIME STEP SIZE =   1.000000    

 WELL NO.  LAYER   ROW   COL   STRESS RATE         
 --------------------------------------------------
      1      1      9     16      -708.5    
      2      1     11     13      -354.2    
      3      1     20     14      -337.0    
      4      1     26     10      -71.71    
      5      1     29      6      -62.21    
      6      1     34     12      -371.5    

      6 WELLS

                 RECHARGE =  1.382400E-04



 CLASSIFICATION & COUNT OF STREAM SEGMENTS BASED ON SOURCE OF INFLOW:

                HEADWATER     DIVERSION     RECEIVES TRIBUTARY FLOW
                ---------     ---------     -----------------------
                     1              0              39



                    INPUT DATA FOR EACH STREAM SEGMENT
 ---------------------------------------------------------------------------------------------

 SEGMENT    SEG.     INFLOW   OVERLAND   STREAM    STREAM   ICALC  OUTFLOW  DIVERSION PRIORITY
    NO.    LENGTH     RATE     RUNOFF      ET       PPT.    METH.  TO SEG.  FROM SEG.    NO.

      1  2.500E+02 0.000E+00 0.000E+00 0.000E+00 0.000E+00    1        2        0        0
      2  2.500E+02 0.000E+00 0.000E+00 0.000E+00 0.000E+00    1        3        0        0
      3  2.500E+02 0.000E+00 0.000E+00 0.000E+00 0.000E+00    1        4        0        0
      4  2.500E+02 0.000E+00 0.000E+00 0.000E+00 0.000E+00    1        5        0        0
      5  2.500E+02 0.000E+00 0.000E+00 0.000E+00 0.000E+00    1        6        0        0
      6  2.500E+02 0.000E+00 0.000E+00 0.000E+00 0.000E+00    1        7        0        0
      7  2.500E+02 0.000E+00 0.000E+00 0.000E+00 0.000E+00    1        8        0        0
      8  2.500E+02 0.000E+00 0.000E+00 0.000E+00 0.000E+00    1        9        0        0
      9  2.500E+02 0.000E+00 0.000E+00 0.000E+00 0.000E+00    1       10        0        0
     10  2.500E+02 0.000E+00 0.000E+00 0.000E+00 0.000E+00    1       11        0        0
     11  2.500E+02 0.000E+00 0.000E+00 0.000E+00 0.000E+00    1       12        0        0
     12  2.500E+02 0.000E+00 0.000E+00 0.000E+00 0.000E+00    1       13        0        0
     13  2.500E+02 0.000E+00 0.000E+00 0.000E+00 0.000E+00    1       14        0        0
     14  2.500E+02 0.000E+00 0.000E+00 0.000E+00 0.000E+00    1       15        0        0
     15  2.500E+02 0.000E+00 0.000E+00 0.000E+00 0.000E+00    1       16        0        0
     16  2.500E+02 0.000E+00 0.000E+00 0.000E+00 0.000E+00    1       17        0        0
     17  2.500E+02 0.000E+00 0.000E+00 0.000E+00 0.000E+00    1       18        0        0
     18  2.500E+02 0.000E+00 0.000E+00 0.000E+00 0.000E+00    1       19        0        0
     19  2.500E+02 0.000E+00 0.000E+00 0.000E+00 0.000E+00    1       20        0        0
     20  2.500E+02 0.000E+00 0.000E+00 0.000E+00 0.000E+00    1       21        0        0
     21  2.500E+02 0.000E+00 0.000E+00 0.000E+00 0.000E+00    1       22        0        0
     22  2.500E+02 0.000E+00 0.000E+00 0.000E+00 0.000E+00    1       23        0        0
     23  2.500E+02 0.000E+00 0.000E+00 0.000E+00 0.000E+00    1       24        0        0
     24  2.500E+02 0.000E+00 0.000E+00 0.000E+00 0.000E+00    1       25        0        0
     25  2.500E+02 0.000E+00 0.000E+00 0.000E+00 0.000E+00    1       26        0        0
     26  2.500E+02 0.000E+00 0.000E+00 0.000E+00 0.000E+00    1       27        0        0
     27  2.500E+02 0.000E+00 0.000E+00 0.000E+00 0.000E+00    1       28        0        0
     28  2.500E+02 0.000E+00 0.000E+00 0.000E+00 0.000E+00    1       29        0        0
     29  2.500E+02 0.000E+00 0.000E+00 0.000E+00 0.000E+00    1       30        0        0
     30  2.500E+02 0.000E+00 0.000E+00 0.000E+00 0.000E+00    1       31        0        0
     31  2.500E+02 0.000E+00 0.000E+00 0.000E+00 0.000E+00    1       32        0        0
     32  2.500E+02 0.000E+00 0.000E+00 0.000E+00 0.000E+00    1       33        0        0
     33  2.500E+02 0.000E+00 0.000E+00 0.000E+00 0.000E+00    1       34        0        0
     34  2.500E+02 0.000E+00 0.000E+00 0.000E+00 0.000E+00    1       35        0        0
     35  2.500E+02 0.000E+00 0.000E+00 0.000E+00 0.000E+00    1       36        0        0
     36  2.500E+02 0.000E+00 0.000E+00 0.000E+00 0.000E+00    1       37        0        0
     37  2.500E+02 0.000E+00 0.000E+00 0.000E+00 0.000E+00    1       38        0        0
     38  2.500E+02 0.000E+00 0.000E+00 0.000E+00 0.000E+00    1       39        0        0
     39  2.500E+02 0.000E+00 0.000E+00 0.000E+00 0.000E+00    1       40        0        0
     40  2.500E+02 0.000E+00 0.000E+00 0.000E+00 0.000E+00    1        0        0        0


         STREAMBED PROPERTIES AND STREAM DIMENSIONS

 SEGMENT     BED HYD. COND.      BED THICKNESS     ELEV.-TOP OF BED     WIDTH OF STREAM     DEPTH OF STREAM    STREAM ROUGHNESS
    No.     UPPER     LOWER     UPPER     LOWER     UPPER     LOWER     UPPER     LOWER     UPPER     LOWER   CHANNEL      BANK

     1  1.000E-01 1.000E-01 1.000E+00 1.000E+00 2.500E+01 2.475E+01 1.000E+01 1.000E+01                     1.000E-01
     2  1.000E-01 1.000E-01 1.000E+00 1.000E+00 2.475E+01 2.450E+01 1.000E+01 1.000E+01                     1.000E-01
     3  1.000E-01 1.000E-01 1.000E+00 1.000E+00 2.450E+01 2.425E+01 1.000E+01 1.000E+01                     1.000E-01
     4  1.000E-01 1.000E-01 1.000E+00 1.000E+00 2.425E+01 2.400E+01 1.000E+01 1.000E+01                     1.000E-01
     5  1.000E-01 1.000E-01 1.000E+00 1.000E+00 2.400E+01 2.375E+01 1.000E+01 1.000E+01                     1.000E-01
     6  1.000E-01 1.000E-01 1.000E+00 1.000E+00 2.375E+01 2.350E+01 1.000E+01 1.000E+01                     1.000E-01
     7  1.000E-01 1.000E-01 1.000E+00 1.000E+00 2.350E+01 2.325E+01 1.000E+01 1.000E+01                     1.000E-01
     8  1.000E-01 1.000E-01 1.000E+00 1.000E+00 2.325E+01 2.300E+01 1.000E+01 1.000E+01                     1.000E-01
     9  1.000E-01 1.000E-01 1.000E+00 1.000E+00 2.300E+01 2.275E+01 1.000E+01 1.000E+01                     1.000E-01
    10  1.000E-01 1.000E-01 1.000E+00 1.000E+00 2.275E+01 2.250E+01 1.000E+01 1.000E+01                     1.000E-01
    11  1.000E-01 1.000E-01 1.000E+00 1.000E+00 2.250E+01 2.225E+01 1.000E+01 1.000E+01                     1.000E-01
    12  1.000E-01 1.000E-01 1.000E+00 1.000E+00 2.225E+01 2.200E+01 1.000E+01 1.000E+01                     1.000E-01
    13  1.000E-01 1.000E-01 1.000E+00 1.000E+00 2.200E+01 2.175E+01 1.000E+01 1.000E+01                     1.000E-01
    14  1.000E-01 1.000E-01 1.000E+00 1.000E+00 2.175E+01 2.150E+01 1.000E+01 1.000E+01                     1.000E-01
    15  1.000E-01 1.000E-01 1.000E+00 1.000E+00 2.150E+01 2.125E+01 1.000E+01 1.000E+01                     1.000E-01
    16  1.000E-01 1.000E-01 1.000E+00 1.000E+00 2.125E+01 2.100E+01 1.000E+01 1.000E+01                     1.000E-01
    17  1.000E-01 1.000E-01 1.000E+00 1.000E+00 2.100E+01 2.075E+01 1.000E+01 1.000E+01                     1.000E-01
    18  1.000E-01 1.000E-01 1.000E+00 1.000E+00 2.075E+01 2.050E+01 1.000E+01 1.000E+01                     1.000E-01
    19  1.000E-01 1.000E-01 1.000E+00 1.000E+00 2.050E+01 2.025E+01 1.000E+01 1.000E+01                     1.000E-01
    20  1.000E-01 1.000E-01 1.000E+00 1.000E+00 2.025E+01 2.000E+01 1.000E+01 1.000E+01                     1.000E-01
    21  1.000E-01 1.000E-01 1.000E+00 1.000E+00 2.000E+01 1.975E+01 1.000E+01 1.000E+01                     1.000E-01
    22  1.000E-01 1.000E-01 1.000E+00 1.000E+00 1.975E+01 1.950E+01 1.000E+01 1.000E+01                     1.000E-01
    23  1.000E-01 1.000E-01 1.000E+00 1.000E+00 1.950E+01 1.925E+01 1.000E+01 1.000E+01                     1.000E-01
    24  1.000E-01 1.000E-01 1.000E+00 1.000E+00 1.925E+01 1.900E+01 1.000E+01 1.000E+01                     1.000E-01
    25  1.000E-01 1.000E-01 1.000E+00 1.000E+00 1.900E+01 1.875E+01 1.000E+01 1.000E+01                     1.000E-01
    26  1.000E-01 1.000E-01 1.000E+00 1.000E+00 1.875E+01 1.850E+01 1.000E+01 1.000E+01                     1.000E-01
    27  1.000E-01 1.000E-01 1.000E+00 1.000E+00 1.850E+01 1.825E+01 1.000E+01 1.000E+01                     1.000E-01
    28  1.000E-01 1.000E-01 1.000E+00 1.000E+00 1.825E+01 1.800E+01 1.000E+01 1.000E+01                     1.000E-01
    29  1.000E-01 1.000E-01 1.000E+00 1.000E+00 1.800E+01 1.775E+01 1.000E+01 1.000E+01                     1.000E-01
    30  1.000E-01 1.000E-01 1.000E+00 1.000E+00 1.775E+01 1.750E+01 1.000E+01 1.000E+01                     1.000E-01
    31  1.000E-01 1.000E-01 1.000E+00 1.000E+00 1.750E+01 1.725E+01 1.000E+01 1.000E+01                     1.000E-01
    32  1.000E-01 1.000E-01 1.000E+00 1.000E+00 1.725E+01 1.700E+01 1.000E+01 1.000E+01                     1.000E-01
    33  1.000E-01 1.000E-01 1.000E+00 1.000E+00 1.700E+01 1.675E+01 1.000E+01 1.000E+01                     1.000E-01
    34  1.000E-01 1.000E-01 1.000E+00 1.000E+00 1.675E+01 1.650E+01 1.000E+01 1.000E+01                     1.000E-01
    35  1.000E-01 1.000E-01 1.000E+00 1.000E+00 1.650E+01 1.625E+01 1.000E+01 1.000E+01                     1.000E-01
    36  1.000E-01 1.000E-01 1.000E+00 1.000E+00 1.625E+01 1.600E+01 1.000E+01 1.000E+01                     1.000E-01
    37  1.000E-01 1.000E-01 1.000E+00 1.000E+00 1.600E+01 1.575E+01 1.000E+01 1.000E+01                     1.000E-01
    38  1.000E-01 1.000E-01 1.000E+00 1.000E+00 1.575E+01 1.550E+01 1.000E+01 1.000E+01                     1.000E-01
    39  1.000E-01 1.000E-01 1.000E+00 1.000E+00 1.550E+01 1.525E+01 1.000E+01 1.000E+01                     1.000E-01
    40  1.000E-01 1.000E-01 1.000E+00 1.000E+00 1.525E+01 1.500E+01 1.000E+01 1.000E+01                     1.000E-01



 A total of   0 hydrographs have been added for SFR arrays.
 
 SOLVING FOR HEAD 

    ------------------------------------------------
       NWT REQUIRED            8 OUTER ITERATIONS 
       AND A TOTAL OF        200 INNER ITERATIONS.
    ------------------------------------------------

 OUTPUT CONTROL FOR STRESS PERIOD    1   TIME STEP    1
    SAVE HEAD FOR ALL LAYERS
    SAVE BUDGET
 UBDSV2 SAVING "   CONSTANT HEAD" ON UNIT  53 AT TIME STEP  1, STRESS PERIOD   1
 UBDSV1 SAVING "FLOW RIGHT FACE " ON UNIT  53 AT TIME STEP  1, STRESS PERIOD   1
 UBDSV1 SAVING "FLOW FRONT FACE " ON UNIT  53 AT TIME STEP  1, STRESS PERIOD   1

 HEAD WILL BE SAVED ON UNIT   51 AT END OF TIME STEP    1, STRESS PERIOD    1
1
  VOLUMETRIC BUDGET FOR ENTIRE MODEL AT END OF TIME STEP    1, STRESS PERIOD   1
  ------------------------------------------------------------------------------

     CUMULATIVE VOLUMES      L**3       RATES FOR THIS TIME STEP      L**3/T
     ------------------                 ------------------------

           IN:                                      IN:
           ---                                      ---
             STORAGE =           0.0000               STORAGE =           0.0000
       CONSTANT HEAD =           0.0000         CONSTANT HEAD =           0.0000
               WELLS =           0.0000                 WELLS =           0.0000
            RECHARGE =        6004.7998              RECHARGE =        6004.7998
      STREAM LEAKAGE =         109.8335        STREAM LEAKAGE =         109.8335

            TOTAL IN =        6114.6333              TOTAL IN =        6114.6333

          OUT:                                     OUT:
          ----                                     ----
             STORAGE =           0.0000               STORAGE =           0.0000
       CONSTANT HEAD =         880.6086         CONSTANT HEAD =         880.6086
               WELLS =        1905.1200                 WELLS =        1905.1200
            RECHARGE =           0.0000              RECHARGE =           0.0000
      STREAM LEAKAGE =        3330.3181        STREAM LEAKAGE =        3330.3181

           TOTAL OUT =        6116.0469             TOTAL OUT =        6116.0469

            IN - OUT =          -1.4136              IN - OUT =          -1.4136

 PERCENT DISCREPANCY =          -0.02     PERCENT DISCREPANCY =          -0.02






         TIME SUMMARY AT END OF TIME STEP    1 IN STRESS PERIOD    1
                    SECONDS     MINUTES      HOURS       DAYS        YEARS
                    -----------------------------------------------------------
   TIME STEP LENGTH  86400.      1440.0      24.000      1.0000     2.73785E-03
 STRESS PERIOD TIME  86400.      1440.0      24.000      1.0000     2.73785E-03
         TOTAL TIME  86400.      1440.0      24.000      1.0000     2.73785E-03
1
 A TOTAL OF 718 HYDROGRAPH POINTS HAVE BEEN PREPARED.
1
                            STRESS PERIOD NO.    2, LENGTH =   3650.000    
                            -----------------------------------------------

                              NUMBER OF TIME STEPS =     1

                               MULTIPLIER FOR DELT =     1.000

                            INITIAL TIME STEP SIZE =   3650.000    

 WELL NO.  LAYER   ROW   COL   STRESS RATE         
 --------------------------------------------------
      1      1      9     16      -885.6    
      2      1     11     13      -442.8    
      3      1     20     14      -421.2    
      4      1     26     10      -89.64    
      5      1     29      6      -77.76    
      6      1     34     12      -464.4    

      6 WELLS

                 RECHARGE =  8.000000E-05

 REUSING STREAM SEGMENT DATA FROM LAST STRESS PERIOD
 
 SOLVING FOR HEAD 

    ------------------------------------------------
       NWT REQUIRED            3 OUTER ITERATIONS 
       AND A TOTAL OF         33 INNER ITERATIONS.
    ------------------------------------------------

 OUTPUT CONTROL FOR STRESS PERIOD    2   TIME STEP    1
    SAVE HEAD FOR ALL LAYERS
    SAVE BUDGET
 UBDSV1 SAVING "         STORAGE" ON UNIT  53 AT TIME STEP  1, STRESS PERIOD   2
 UBDSV2 SAVING "   CONSTANT HEAD" ON UNIT  53 AT TIME STEP  1, STRESS PERIOD   2
 UBDSV1 SAVING "FLOW RIGHT FACE " ON UNIT  53 AT TIME STEP  1, STRESS PERIOD   2
 UBDSV1 SAVING "FLOW FRONT FACE " ON UNIT  53 AT TIME STEP  1, STRESS PERIOD   2

 HEAD WILL BE SAVED ON UNIT   51 AT END OF TIME STEP    1, STRESS PERIOD    2
1
  VOLUMETRIC BUDGET FOR ENTIRE MODEL AT END OF TIME STEP    1, STRESS PERIOD   2
  ------------------------------------------------------------------------------

     CUMULATIVE VOLUMES      L**3       RATES FOR THIS TIME STEP      L**3/T
     ------------------                 ------------------------

           IN:                                      IN:
           ---                                      ---
             STORAGE =     5624707.0000               STORAGE =        1541.0156
       CONSTANT HEAD =           0.0000         CONSTANT HEAD =           0.0000
               WELLS =           0.0000                 WELLS =           0.0000
            RECHARGE =    12689755.0000              RECHARGE =        3475.0000
      STREAM LEAKAGE =     1049533.1250        STREAM LEAKAGE =         287.5132

            TOTAL IN =    19363996.0000              TOTAL IN =        5303.5288

          OUT:                                     OUT:
          ----                                     ----
             STORAGE =           0.0000               STORAGE =           0.0000
       CONSTANT HEAD =     2811873.0000         CONSTANT HEAD =         770.1349
               WELLS =     8694015.0000                 WELLS =        2381.3999
            RECHARGE =           0.0000              RECHARGE =           0.0000
      STREAM LEAKAGE =     7855076.5000        STREAM LEAKAGE =        2151.1633

           TOTAL OUT =    19360964.0000             TOTAL OUT =        5302.6982

            IN - OUT =        3032.0000              IN - OUT =           0.8306

 PERCENT DISCREPANCY =           0.02     PERCENT DISCREPANCY =           0.02






         TIME SUMMARY AT END OF TIME STEP    1 IN STRESS PERIOD    2
                    SECONDS     MINUTES      HOURS       DAYS        YEARS
                    -----------------------------------------------------------
   TIME STEP LENGTH 3.15360E+08 5.25600E+06  87600.      3650.0      9.9932    
 STRESS PERIOD TIME 3.15360E+08 5.25600E+06  87600.      3650.0      9.9932    
         TOTAL TIME 3.15446E+08 5.25744E+06  87624.      3651.0      9.9959    
1
1
                            STRESS PERIOD NO.    3, LENGTH =   1.000000    
                            -----------------------------------------------

                              NUMBER OF TIME STEPS =     1

                               MULTIPLIER FOR DELT =     1.000

                            INITIAL TIME STEP SIZE =   1.000000    

 WELL NO.  LAYER   ROW   COL   STRESS RATE         
 --------------------------------------------------
      1      1      9     16      -885.6    
      2      1     11     13      -442.8    
      3      1     20     14      -421.2    
      4      1     26     10      -89.64    
      5      1     29      6      -77.76    
      6      1     34     12      -464.4    

      6 WELLS

                 RECHARGE =  8.000000E-05

 REUSING STREAM SEGMENT DATA FROM LAST STRESS PERIOD
 
 SOLVING FOR HEAD 

    ------------------------------------------------
       NWT REQUIRED           10 OUTER ITERATIONS 
       AND A TOTAL OF        214 INNER ITERATIONS.
    ------------------------------------------------

 OUTPUT CONTROL FOR STRESS PERIOD    3   TIME STEP    1
    SAVE HEAD FOR ALL LAYERS
    SAVE BUDGET
 UBDSV2 SAVING "   CONSTANT HEAD" ON UNIT  53 AT TIME STEP  1, STRESS PERIOD   3
 UBDSV1 SAVING "FLOW RIGHT FACE " ON UNIT  53 AT TIME STEP  1, STRESS PERIOD   3
 UBDSV1 SAVING "FLOW FRONT FACE " ON UNIT  53 AT TIME STEP  1, STRESS PERIOD   3

 HEAD WILL BE SAVED ON UNIT   51 AT END OF TIME STEP    1, STRESS PERIOD    3
1
  VOLUMETRIC BUDGET FOR ENTIRE MODEL AT END OF TIME STEP    1, STRESS PERIOD   3
  ------------------------------------------------------------------------------

     CUMULATIVE VOLUMES      L**3       RATES FOR THIS TIME STEP      L**3/T
     ------------------                 ------------------------

           IN:                                      IN:
           ---                                      ---
             STORAGE =     5624707.0000               STORAGE =           0.0000
       CONSTANT HEAD =           0.0000         CONSTANT HEAD =           0.0000
               WELLS =           0.0000                 WELLS =           0.0000
            RECHARGE =    12693230.0000              RECHARGE =        3475.0000
      STREAM LEAKAGE =     1049636.3750        STREAM LEAKAGE =         103.2054

            TOTAL IN =    19367572.0000              TOTAL IN =        3578.2053

          OUT:                                     OUT:
          ----                                     ----
             STORAGE =           0.0000               STORAGE =           0.0000
       CONSTANT HEAD =     2812426.2500         CONSTANT HEAD =         553.1992
               WELLS =     8696396.0000                 WELLS =        2381.3999
            RECHARGE =           0.0000              RECHARGE =           0.0000
      STREAM LEAKAGE =     7855720.0000        STREAM LEAKAGE =         643.5441

           TOTAL OUT =    19364542.0000             TOTAL OUT =        3578.1431

            IN - OUT =        3030.0000              IN - OUT =       6.2256E-02

 PERCENT DISCREPANCY =           0.02     PERCENT DISCREPANCY =           0.00






         TIME SUMMARY AT END OF TIME STEP    1 IN STRESS PERIOD    3
                    SECONDS     MINUTES      HOURS       DAYS        YEARS
                    -----------------------------------------------------------
   TIME STEP LENGTH  86400.      1440.0      24.000      1.0000     2.73785E-03
 STRESS PERIOD TIME  86400.      1440.0      24.000      1.0000     2.73785E-03
         TOTAL TIME 3.15533E+08 5.25888E+06  87648.      3652.0      9.9986    
1

 Run end date and time (yyyy/mm/dd hh:mm:ss): 2022/02/25 13:59:43
 Elapsed run time:  0.072 Seconds

