                                   MODFLOW 6
                U.S. GEOLOGICAL SURVEY MODULAR HYDROLOGIC MODEL
                   VERSION 6.3.0 release candidate 02/06/2022
                               ***DEVELOP MODE***

   MODFLOW 6 compiled Feb 06 2022 02:35:51 with Intel(R) Fortran Intel(R) 64
   Compiler Classic for applications running on Intel(R) 64, Version 2021.5.0
                             Build 20211109_000000

This software is preliminary or provisional and is subject to 
revision. It is being provided to meet the need for timely best 
science. The software has not received final approval by the U.S. 
Geological Survey (USGS). No warranty, expressed or implied, is made 
by the USGS or the U.S. Government as to the functionality of the 
software and related material nor shall the fact of release 
constitute any such warranty. The software is provided on the 
condition that neither the USGS nor the U.S. Government shall be held 
liable for any damages resulting from the authorized or unauthorized 
use of the software.


As a work of the United States Government, this USGS product is 
in the public domain within the United States. You can copy, 
modify, distribute, and perform the work, even for commercial 
purposes, all without asking permission. Additionally, USGS 
waives copyright and related rights in the work worldwide 
through CC0 1.0 Universal Public Domain Dedication 
(https://creativecommons.org/publicdomain/zero/1.0/).

The following GNU Lesser General Public License (LGPL) libraries
are used in this USGS product:

    SPARSKIT version 2.0
      ilut, luson, and qsplit 
      (https://www-users.cse.umn.edu/~saad/software/SPARSKIT/)

    RCM - Reverse Cuthill McKee Ordering
      (https://people.math.sc.edu/Burkardt/f_src/rcm/rcm.html)

    BLAS - Basic Linear Algebra Subprograms Level 1
      (https://people.math.sc.edu/Burkardt/f_src/blas1_d/blas1_d.html)

    SPARSEKIT - Sparse Matrix Utility Package
      amux, dperm, dvperm, rperm, and cperm
      (https://people.sc.fsu.edu/~jburkardt/f77_src/sparsekit/sparsekit.html)

The following BSD-3 License libraries are used in this USGS product:

    Modern Fortran DAG Library
      Copyright (c) 2018, Jacob Williams
      All rights reserved.
      (https://github.com/jacobwilliams/daglib)

MODFLOW 6 compiler options: /O2 /heap-arrays:0 /fpe:0 /traceback /nologo /fpp
/c /module:.\mod_temp\ /object:.\obj_temp\

System command used to initiate simulation:
mf6.exe

MODFLOW was compiled using uniform precision.

Real Variables
  KIND: 8
  TINY (smallest non-zero value):    2.225074-308
  HUGE (largest value):    1.797693+308
  PRECISION: 15
  BIT SIZE: 64

Integer Variables
  KIND: 4
  HUGE (largest value): 2147483647
  BIT SIZE: 32

Long Integer Variables
  KIND: 8
  HUGE (largest value): 9223372036854775807
  BIT SIZE: 64

Logical Variables
  KIND: 4
  BIT SIZE: 32
 

 OPENED mfsim.nam
 FILE TYPE:NAM   UNIT 1001   STATUS:OLD                 
 FORMAT:FORMATTED              ACCESS:SEQUENTIAL          
 ACTION:READ                


 READING SIMULATION OPTIONS
    SIMULATION WILL CONTINUE EVEN IF THERE IS NONCONVERGENCE.
 END OF SIMULATION OPTIONS

 READING SIMULATION TIMING

 OPENED freyberg6.tdis
 FILE TYPE:TDIS   UNIT 1002   STATUS:OLD                 
 FORMAT:FORMATTED              ACCESS:SEQUENTIAL          
 ACTION:READ                


 TDIS -- TEMPORAL DISCRETIZATION PACKAGE,
 VERSION 1 : 11/13/2014 - INPUT READ FROM UNIT 1002
 PROCESSING TDIS OPTIONS
    SIMULATION TIME UNIT IS DAYS
 END OF TDIS OPTIONS
 PROCESSING TDIS DIMENSIONS
   25 STRESS PERIOD(S) IN SIMULATION
 END OF TDIS DIMENSIONS
 PROCESSING TDIS PERIODDATA


 STRESS PERIOD     LENGTH       TIME STEPS     MULTIPLIER FOR DELT
 ----------------------------------------------------------------------------
        1         1.000000          1                    1.000
        2         31.00000          1                    1.000
        3         29.00000          1                    1.000
        4         31.00000          1                    1.000
        5         30.00000          1                    1.000
        6         31.00000          1                    1.000
        7         30.00000          1                    1.000
        8         31.00000          1                    1.000
        9         31.00000          1                    1.000
       10         30.00000          1                    1.000
       11         31.00000          1                    1.000
       12         30.00000          1                    1.000
       13         31.00000          1                    1.000
       14         31.00000          1                    1.000
       15         28.00000          1                    1.000
       16         31.00000          1                    1.000
       17         30.00000          1                    1.000
       18         31.00000          1                    1.000
       19         30.00000          1                    1.000
       20         31.00000          1                    1.000
       21         31.00000          1                    1.000
       22         30.00000          1                    1.000
       23         31.00000          1                    1.000
       24         30.00000          1                    1.000
       25         31.00000          1                    1.000
 END OF TDIS PERIODDATA
 END OF SIMULATION TIMING

 READING SIMULATION MODELS
    GWF6 model FREYBERG6 will be created as model 1
 END OF SIMULATION MODELS

 READING SIMULATION EXCHANGES
 END OF SIMULATION EXCHANGES

 READING SOLUTIONGROUP

 Creating solution: SLN_1           

 OPENED freyberg6.ims
 FILE TYPE:IMS   UNIT 1015   STATUS:OLD                 
 FORMAT:FORMATTED              ACCESS:SEQUENTIAL          
 ACTION:READ                

 END OF SIMULATION SOLUTIONGROUP

PROCESSING MODEL CONNECTIONS

 IMS -- ITERATIVE MODEL SOLUTION PACKAGE, VERSION 6, 4/28/2017
         INPUT READ FROM UNIT 1015

 PROCESSING IMS OPTIONS
 SIMPLE OPTION:
 DEFAULT SOLVER INPUT VALUES FOR FAST SOLUTIONS
 END OF IMS OPTIONS

 PROCESSING IMS NONLINEAR
 END OF IMS NONLINEAR DATA
 **UNDER-RELAXATION WILL BE USED***
 
 ***IMS LINEAR SOLVER WILL BE USED***

 IMSLINEAR -- UNSTRUCTURED LINEAR SOLUTION PACKAGE, VERSION 8, 04/28/2017

 PROCESSING LINEAR DATA
 END OF LINEAR DATA
 
 An asymmetric matrix will be solved

 OUTER ITERATION CONVERGENCE CRITERION    (DVCLOSE) =    0.100000E-02
 MAXIMUM NUMBER OF OUTER ITERATIONS        (MXITER) = 100
 SOLVER PRINTOUT INDEX                     (IPRIMS) = 1
 NONLINEAR ITERATION METHOD            (NONLINMETH) = 3
 LINEAR SOLUTION METHOD                   (LINMETH) = 1
 UNDER-RELAXATION WEIGHT REDUCTION FACTOR   (THETA) =    0.850000E+00
 UNDER-RELAXATION WEIGHT INCREASE INCREMENT (KAPPA) =    0.100000E-04
 UNDER-RELAXATION PREVIOUS HISTORY FACTOR   (GAMMA) =    0.000000E+00
 UNDER-RELAXATION MOMENTUM TERM         (AMOMENTUM) =    0.100000E+00
 MAXIMUM NUMBER OF BACKTRACKS            (NUMTRACK) = 50
 BACKTRACKING TOLERANCE FACTOR               (BTOL) =    0.110000E+01
 BACKTRACKING REDUCTION FACTOR             (BREDUC) =    0.700000E+00
 BACKTRACKING RESIDUAL LIMIT              (RES_LIM) =    0.100000E+03

       SOLUTION BY THE BICONJUGATE-GRADIENT STABILIZED METHOD
 ------------------------------------------------------------------
 MAXIMUM OF 100 CALLS OF SOLUTION ROUTINE
 MAXIMUM OF 50 INTERNAL ITERATIONS PER CALL TO SOLUTION ROUTINE
 LINEAR ACCELERATION METHOD            = BCGS      
 MATRIX PRECONDITIONING TYPE           = INCOMPLETE LUT      
 MATRIX SCALING APPROACH               = NO SCALING          
 MATRIX REORDERING APPROACH            = RCM ORDERING             
 NUMBER OF ORTHOGONALIZATIONS          = 2
 HEAD CHANGE CRITERION FOR CLOSURE     =    0.10000E-03
 RESIDUAL CHANGE CRITERION FOR CLOSURE =    0.10000E+00
 RESIDUAL CONVERGENCE OPTION           = 0
 RESIDUAL CONVERGENCE NORM             = INFINITY NORM   
 RELAXATION FACTOR                     =    0.00000E+00
 NUMBER OF LEVELS                      =              1
 DROP TOLERANCE                        =    0.10000E-02


 
    Solving:  Stress period:     1    Time step:     1
 
1
                            STRESS PERIOD NO. 1, LENGTH =   1.000000    
                            -----------------------------------------------
                            NUMBER OF TIME STEPS = 1
                            MULTIPLIER FOR DELT =     1.000
                            INITIAL TIME STEP SIZE =   1.000000    



 PSEUDO-TRANSIENT CONTINUATION WILL BE APPLIED TO MODEL 1 ("FREYBERG6") DURING THIS TIME STEP

 SLN_1 OUTER ITERATION SUMMARY
 ----------------------------------------------------------------------------------------------------------------------------------------------------------------
                                OUTER      INNER  BACKTRACK  BACKTRACK        INCOMING        OUTGOING                    STEP   MAXIMUM CHANGE MODEL-(CELLID) OR
 OUTER ITERATION STEP       ITERATION  ITERATION       FLAG ITERATIONS        RESIDUAL        RESIDUAL  MAXIMUM CHANGE SUCCESS             MODEL-PACKAGE-(NUMBER)
 ----------------------------------------------------------------------------------------------------------------------------------------------------------------
 Backtracking                       1                     0          0       2042012.5       2042012.5                       *                                   
 Model                              1         32                                                             804.96371                            1_GWF-(3,40,16)
 Backtracking                       2                     0          0       191107.35       191107.35                       *                                   
 Model                              2         50                                                             337.59635                            1_GWF-(1,40,16)
 Backtracking                       3                     0          0       41626.424       41626.424                       *                                   
 Model                              3         50                                                             16.776162                            1_GWF-(3,40,15)
 Backtracking                       4                     0          0       8938.5574       8938.5574                       *                                   
 Model                              4         50                                                            -1.9236805                             1_GWF-(1,12,1)
 Backtracking                       5                     0          0       2106.5901       2106.5901                       *                                   
 Model                              5         50                                                           -0.83329411                             1_GWF-(1,17,2)
 Backtracking                       6                     0          0       993.09060       993.09060                       *                                   
 Model                              6         50                                                           -0.28420366                             1_GWF-(1,17,2)
 Backtracking                       7                     0          0       403.68410       403.68410                       *                                   
 Model                              7         50                                                       -6.72747823E-02                             1_GWF-(1,30,6)
 Backtracking                       8                     0          0       148.87444       148.87444                       *                                   
 Model                              8         33                                                       -2.17467948E-02                             1_GWF-(1,30,6)
 Backtracking                       9                     0          0       52.681100       52.681100                       *                                   
 Model                              9         22                                                       -6.91107958E-03                             1_GWF-(1,30,6)
 Backtracking                      10                     0          0       17.941733       17.941733                       *                                   
 Model                             10          6                                                       -1.38081889E-03                             1_GWF-(3,30,6)
 Backtracking                      11                     0          0       5.0015144       5.0015144                       *                                   
 Model                             11          4                                                       -5.26698682E-04       *                     1_GWF-(1,30,6)
 ----------------------------------------------------------------------------------------------------------------------------------------------------------------


 11 CALLS TO NUMERICAL SOLUTION IN TIME STEP 1 STRESS PERIOD 1
 397 TOTAL ITERATIONS
 
    Solving:  Stress period:     2    Time step:     1
 
1
                            STRESS PERIOD NO. 2, LENGTH =   31.00000    
                            -----------------------------------------------
                            NUMBER OF TIME STEPS = 1
                            MULTIPLIER FOR DELT =     1.000
                            INITIAL TIME STEP SIZE =   31.00000    

 SLN_1 OUTER ITERATION SUMMARY
 ----------------------------------------------------------------------------------------------------------------------------------------------------------------
                                OUTER      INNER  BACKTRACK  BACKTRACK        INCOMING        OUTGOING                    STEP   MAXIMUM CHANGE MODEL-(CELLID) OR
 OUTER ITERATION STEP       ITERATION  ITERATION       FLAG ITERATIONS        RESIDUAL        RESIDUAL  MAXIMUM CHANGE SUCCESS             MODEL-PACKAGE-(NUMBER)
 ----------------------------------------------------------------------------------------------------------------------------------------------------------------
 Backtracking                       1                     0          0       266.73337       266.73337                       *                                   
 Model                              1         40                                                            0.18388459                             1_GWF-(3,30,7)
 Backtracking                       2                     0          0       18.703509       18.703509                       *                                   
 Model                              2         16                                                        4.65657167E-03                            1_GWF-(1,39,16)
 Backtracking                       3                     0          0       3.1799391       3.1799391                       *                                   
 Model                              3          4                                                        5.44922599E-04       *                    1_GWF-(1,32,16)
 ----------------------------------------------------------------------------------------------------------------------------------------------------------------


 3 CALLS TO NUMERICAL SOLUTION IN TIME STEP 1 STRESS PERIOD 2
 60 TOTAL ITERATIONS
 
    Solving:  Stress period:     3    Time step:     1
 
1
                            STRESS PERIOD NO. 3, LENGTH =   29.00000    
                            -----------------------------------------------
                            NUMBER OF TIME STEPS = 1
                            MULTIPLIER FOR DELT =     1.000
                            INITIAL TIME STEP SIZE =   29.00000    

 SLN_1 OUTER ITERATION SUMMARY
 ----------------------------------------------------------------------------------------------------------------------------------------------------------------
                                OUTER      INNER  BACKTRACK  BACKTRACK        INCOMING        OUTGOING                    STEP   MAXIMUM CHANGE MODEL-(CELLID) OR
 OUTER ITERATION STEP       ITERATION  ITERATION       FLAG ITERATIONS        RESIDUAL        RESIDUAL  MAXIMUM CHANGE SUCCESS             MODEL-PACKAGE-(NUMBER)
 ----------------------------------------------------------------------------------------------------------------------------------------------------------------
 Backtracking                       1                     0          0       141.46127       141.46127                       *                                   
 Model                              1         43                                                            0.15677065                             1_GWF-(1,13,2)
 Backtracking                       2                     0          0       14.946327       14.946327                       *                                   
 Model                              2         11                                                        3.97578669E-03                            1_GWF-(1,28,16)
 Backtracking                       3                     0          0       4.0869591       4.0869591                       *                                   
 Model                              3         12                                                        1.77062845E-03                            1_GWF-(2,28,20)
 Backtracking                       4                     0          0       1.8883313       1.8883313                       *                                   
 Model                              4          3                                                        2.54438443E-04       *                    1_GWF-(1,31,16)
 ----------------------------------------------------------------------------------------------------------------------------------------------------------------


 4 CALLS TO NUMERICAL SOLUTION IN TIME STEP 1 STRESS PERIOD 3
 69 TOTAL ITERATIONS
 
    Solving:  Stress period:     4    Time step:     1
 
1
                            STRESS PERIOD NO. 4, LENGTH =   31.00000    
                            -----------------------------------------------
                            NUMBER OF TIME STEPS = 1
                            MULTIPLIER FOR DELT =     1.000
                            INITIAL TIME STEP SIZE =   31.00000    

 SLN_1 OUTER ITERATION SUMMARY
 ----------------------------------------------------------------------------------------------------------------------------------------------------------------
                                OUTER      INNER  BACKTRACK  BACKTRACK        INCOMING        OUTGOING                    STEP   MAXIMUM CHANGE MODEL-(CELLID) OR
 OUTER ITERATION STEP       ITERATION  ITERATION       FLAG ITERATIONS        RESIDUAL        RESIDUAL  MAXIMUM CHANGE SUCCESS             MODEL-PACKAGE-(NUMBER)
 ----------------------------------------------------------------------------------------------------------------------------------------------------------------
 Backtracking                       1                     0          0       151.45761       151.45761                       *                                   
 Model                              1         41                                                           -0.23939194                             1_GWF-(1,11,4)
 Backtracking                       2                     0          0       41.545945       41.545945                       *                                   
 Model                              2         15                                                       -9.65495018E-03                            1_GWF-(1,30,16)
 Backtracking                       3                     0          0       7.2043751       7.2043751                       *                                   
 Model                              3         14                                                       -2.09359262E-03                            1_GWF-(1,32,16)
 Backtracking                       4                     0          0       1.8173191       1.8173191                       *                                   
 Model                              4          2                                                       -2.02683364E-04       *                    1_GWF-(1,31,16)
 ----------------------------------------------------------------------------------------------------------------------------------------------------------------


 4 CALLS TO NUMERICAL SOLUTION IN TIME STEP 1 STRESS PERIOD 4
 72 TOTAL ITERATIONS
 
    Solving:  Stress period:     5    Time step:     1
 
1
                            STRESS PERIOD NO. 5, LENGTH =   30.00000    
                            -----------------------------------------------
                            NUMBER OF TIME STEPS = 1
                            MULTIPLIER FOR DELT =     1.000
                            INITIAL TIME STEP SIZE =   30.00000    

 SLN_1 OUTER ITERATION SUMMARY
 ----------------------------------------------------------------------------------------------------------------------------------------------------------------
                                OUTER      INNER  BACKTRACK  BACKTRACK        INCOMING        OUTGOING                    STEP   MAXIMUM CHANGE MODEL-(CELLID) OR
 OUTER ITERATION STEP       ITERATION  ITERATION       FLAG ITERATIONS        RESIDUAL        RESIDUAL  MAXIMUM CHANGE SUCCESS             MODEL-PACKAGE-(NUMBER)
 ----------------------------------------------------------------------------------------------------------------------------------------------------------------
 Backtracking                       1                     0          0       130.94294       130.94294                       *                                   
 Model                              1         38                                                           -0.10804320                             1_GWF-(1,24,2)
 Backtracking                       2                     0          0       16.231789       16.231789                       *                                   
 Model                              2         14                                                       -4.22360437E-03                            1_GWF-(1,30,16)
 Backtracking                       3                     0          0       3.8444777       3.8444777                       *                                   
 Model                              3          8                                                       -1.06262582E-03                            1_GWF-(1,32,16)
 Backtracking                       4                     0          0      0.81656695      0.81656695                       *                                   
 Model                              4          2                                                       -1.80974784E-04       *                    1_GWF-(1,32,16)
 ----------------------------------------------------------------------------------------------------------------------------------------------------------------


 4 CALLS TO NUMERICAL SOLUTION IN TIME STEP 1 STRESS PERIOD 5
 62 TOTAL ITERATIONS
 
    Solving:  Stress period:     6    Time step:     1
 
1
                            STRESS PERIOD NO. 6, LENGTH =   31.00000    
                            -----------------------------------------------
                            NUMBER OF TIME STEPS = 1
                            MULTIPLIER FOR DELT =     1.000
                            INITIAL TIME STEP SIZE =   31.00000    

 SLN_1 OUTER ITERATION SUMMARY
 ----------------------------------------------------------------------------------------------------------------------------------------------------------------
                                OUTER      INNER  BACKTRACK  BACKTRACK        INCOMING        OUTGOING                    STEP   MAXIMUM CHANGE MODEL-(CELLID) OR
 OUTER ITERATION STEP       ITERATION  ITERATION       FLAG ITERATIONS        RESIDUAL        RESIDUAL  MAXIMUM CHANGE SUCCESS             MODEL-PACKAGE-(NUMBER)
 ----------------------------------------------------------------------------------------------------------------------------------------------------------------
 Backtracking                       1                     0          0       258.20893       258.20893                       *                                   
 Model                              1         50                                                           -0.20110938                             1_GWF-(3,30,7)
 Backtracking                       2                     0          0       36.362328       36.362328                       *                                   
 Model                              2         18                                                       -8.95945548E-03                            1_GWF-(1,30,16)
 Backtracking                       3                     0          0       5.6833902       5.6833902                       *                                   
 Model                              3          8                                                       -1.53311576E-03                            1_GWF-(1,39,16)
 Backtracking                       4                     0          0      0.86297200      0.86297200                       *                                   
 Model                              4          8                                                       -1.20956202E-03                            1_GWF-(2,35,20)
 Backtracking                       5                     0          0      0.64115641      0.64115641                       *                                   
 Model                              5          1                                                       -5.96745541E-05       *                     1_GWF-(2,34,3)
 ----------------------------------------------------------------------------------------------------------------------------------------------------------------


 5 CALLS TO NUMERICAL SOLUTION IN TIME STEP 1 STRESS PERIOD 6
 85 TOTAL ITERATIONS
 
    Solving:  Stress period:     7    Time step:     1
 
1
                            STRESS PERIOD NO. 7, LENGTH =   30.00000    
                            -----------------------------------------------
                            NUMBER OF TIME STEPS = 1
                            MULTIPLIER FOR DELT =     1.000
                            INITIAL TIME STEP SIZE =   30.00000    

 SLN_1 OUTER ITERATION SUMMARY
 ----------------------------------------------------------------------------------------------------------------------------------------------------------------
                                OUTER      INNER  BACKTRACK  BACKTRACK        INCOMING        OUTGOING                    STEP   MAXIMUM CHANGE MODEL-(CELLID) OR
 OUTER ITERATION STEP       ITERATION  ITERATION       FLAG ITERATIONS        RESIDUAL        RESIDUAL  MAXIMUM CHANGE SUCCESS             MODEL-PACKAGE-(NUMBER)
 ----------------------------------------------------------------------------------------------------------------------------------------------------------------
 Backtracking                       1                     0          0       157.60481       157.60481                       *                                   
 Model                              1         46                                                           -0.18066625                              1_GWF-(1,1,4)
 Backtracking                       2                     0          0       29.923185       29.923185                       *                                   
 Model                              2         16                                                       -7.53301580E-03                            1_GWF-(1,30,16)
 Backtracking                       3                     0          0       5.5461017       5.5461017                       *                                   
 Model                              3          8                                                       -1.37185318E-03                            1_GWF-(1,32,16)
 Backtracking                       4                     0          0      0.89180231      0.89180231                       *                                   
 Model                              4          8                                                       -1.08076744E-03                            1_GWF-(2,35,20)
 Backtracking                       5                     0          0      0.87639862      0.87639862                       *                                   
 Model                              5          2                                                       -9.45921177E-05       *                     1_GWF-(1,36,6)
 ----------------------------------------------------------------------------------------------------------------------------------------------------------------


 5 CALLS TO NUMERICAL SOLUTION IN TIME STEP 1 STRESS PERIOD 7
 80 TOTAL ITERATIONS
 
    Solving:  Stress period:     8    Time step:     1
 
1
                            STRESS PERIOD NO. 8, LENGTH =   31.00000    
                            -----------------------------------------------
                            NUMBER OF TIME STEPS = 1
                            MULTIPLIER FOR DELT =     1.000
                            INITIAL TIME STEP SIZE =   31.00000    

 SLN_1 OUTER ITERATION SUMMARY
 ----------------------------------------------------------------------------------------------------------------------------------------------------------------
                                OUTER      INNER  BACKTRACK  BACKTRACK        INCOMING        OUTGOING                    STEP   MAXIMUM CHANGE MODEL-(CELLID) OR
 OUTER ITERATION STEP       ITERATION  ITERATION       FLAG ITERATIONS        RESIDUAL        RESIDUAL  MAXIMUM CHANGE SUCCESS             MODEL-PACKAGE-(NUMBER)
 ----------------------------------------------------------------------------------------------------------------------------------------------------------------
 Backtracking                       1                     0          0       208.37066       208.37066                       *                                   
 Model                              1         50                                                           -0.23424592                             1_GWF-(1,13,3)
 Backtracking                       2                     0          0       40.176762       40.176762                       *                                   
 Model                              2         18                                                       -9.90536415E-03                            1_GWF-(1,30,16)
 Backtracking                       3                     0          0       7.9456404       7.9456404                       *                                   
 Model                              3         14                                                       -2.48084512E-03                            1_GWF-(1,32,16)
 Backtracking                       4                     0          0       2.2983449       2.2983449                       *                                   
 Model                              4          7                                                       -3.98668414E-04       *                     1_GWF-(1,34,7)
 ----------------------------------------------------------------------------------------------------------------------------------------------------------------


 4 CALLS TO NUMERICAL SOLUTION IN TIME STEP 1 STRESS PERIOD 8
 89 TOTAL ITERATIONS
 
    Solving:  Stress period:     9    Time step:     1
 
1
                            STRESS PERIOD NO. 9, LENGTH =   31.00000    
                            -----------------------------------------------
                            NUMBER OF TIME STEPS = 1
                            MULTIPLIER FOR DELT =     1.000
                            INITIAL TIME STEP SIZE =   31.00000    

 SLN_1 OUTER ITERATION SUMMARY
 ----------------------------------------------------------------------------------------------------------------------------------------------------------------
                                OUTER      INNER  BACKTRACK  BACKTRACK        INCOMING        OUTGOING                    STEP   MAXIMUM CHANGE MODEL-(CELLID) OR
 OUTER ITERATION STEP       ITERATION  ITERATION       FLAG ITERATIONS        RESIDUAL        RESIDUAL  MAXIMUM CHANGE SUCCESS             MODEL-PACKAGE-(NUMBER)
 ----------------------------------------------------------------------------------------------------------------------------------------------------------------
 Backtracking                       1                     0          0       291.83360       291.83360                       *                                   
 Model                              1         46                                                           -0.24532603                            1_GWF-(3,10,17)
 Backtracking                       2                     0          0       48.059856       48.059856                       *                                   
 Model                              2         22                                                       -1.20795957E-02                            1_GWF-(1,30,16)
 Backtracking                       3                     0          0       11.664182       11.664182                       *                                   
 Model                              3         14                                                       -3.19865375E-03                            1_GWF-(1,32,16)
 Backtracking                       4                     0          0       2.1231676       2.1231676                       *                                   
 Model                              4          4                                                       -4.94210887E-04       *                    1_GWF-(1,39,16)
 ----------------------------------------------------------------------------------------------------------------------------------------------------------------


 4 CALLS TO NUMERICAL SOLUTION IN TIME STEP 1 STRESS PERIOD 9
 86 TOTAL ITERATIONS
 
    Solving:  Stress period:    10    Time step:     1
 
1
                            STRESS PERIOD NO. 10, LENGTH =   30.00000    
                            -----------------------------------------------
                            NUMBER OF TIME STEPS = 1
                            MULTIPLIER FOR DELT =     1.000
                            INITIAL TIME STEP SIZE =   30.00000    

 SLN_1 OUTER ITERATION SUMMARY
 ----------------------------------------------------------------------------------------------------------------------------------------------------------------
                                OUTER      INNER  BACKTRACK  BACKTRACK        INCOMING        OUTGOING                    STEP   MAXIMUM CHANGE MODEL-(CELLID) OR
 OUTER ITERATION STEP       ITERATION  ITERATION       FLAG ITERATIONS        RESIDUAL        RESIDUAL  MAXIMUM CHANGE SUCCESS             MODEL-PACKAGE-(NUMBER)
 ----------------------------------------------------------------------------------------------------------------------------------------------------------------
 Backtracking                       1                     0          0       201.75531       201.75531                       *                                   
 Model                              1         45                                                           -0.14500796                             1_GWF-(1,12,3)
 Backtracking                       2                     0          0       17.764256       17.764256                       *                                   
 Model                              2         10                                                       -4.24453834E-03                            1_GWF-(1,30,16)
 Backtracking                       3                     0          0       4.5157064       4.5157064                       *                                   
 Model                              3          8                                                       -1.70577333E-03                            1_GWF-(2,35,20)
 Backtracking                       4                     0          0       1.8644912       1.8644912                       *                                   
 Model                              4          2                                                       -2.22551721E-04       *                    1_GWF-(1,31,16)
 ----------------------------------------------------------------------------------------------------------------------------------------------------------------


 4 CALLS TO NUMERICAL SOLUTION IN TIME STEP 1 STRESS PERIOD 10
 65 TOTAL ITERATIONS
 
    Solving:  Stress period:    11    Time step:     1
 
1
                            STRESS PERIOD NO. 11, LENGTH =   31.00000    
                            -----------------------------------------------
                            NUMBER OF TIME STEPS = 1
                            MULTIPLIER FOR DELT =     1.000
                            INITIAL TIME STEP SIZE =   31.00000    

 SLN_1 OUTER ITERATION SUMMARY
 ----------------------------------------------------------------------------------------------------------------------------------------------------------------
                                OUTER      INNER  BACKTRACK  BACKTRACK        INCOMING        OUTGOING                    STEP   MAXIMUM CHANGE MODEL-(CELLID) OR
 OUTER ITERATION STEP       ITERATION  ITERATION       FLAG ITERATIONS        RESIDUAL        RESIDUAL  MAXIMUM CHANGE SUCCESS             MODEL-PACKAGE-(NUMBER)
 ----------------------------------------------------------------------------------------------------------------------------------------------------------------
 Backtracking                       1                     0          0       285.67169       285.67169                       *                                   
 Model                              1         45                                                            0.18838299                            1_GWF-(1,35,13)
 Backtracking                       2                     0          0       73.440092       73.440092                       *                                   
 Model                              2         20                                                        1.89189652E-02                            1_GWF-(1,30,16)
 Backtracking                       3                     0          0       13.484575       13.484575                       *                                   
 Model                              3         14                                                        3.96616764E-03                            1_GWF-(1,32,16)
 Backtracking                       4                     0          0       1.8188481       1.8188481                       *                                   
 Model                              4          4                                                        4.67953213E-04       *                    1_GWF-(1,39,16)
 ----------------------------------------------------------------------------------------------------------------------------------------------------------------


 4 CALLS TO NUMERICAL SOLUTION IN TIME STEP 1 STRESS PERIOD 11
 83 TOTAL ITERATIONS
 
    Solving:  Stress period:    12    Time step:     1
 
1
                            STRESS PERIOD NO. 12, LENGTH =   30.00000    
                            -----------------------------------------------
                            NUMBER OF TIME STEPS = 1
                            MULTIPLIER FOR DELT =     1.000
                            INITIAL TIME STEP SIZE =   30.00000    

 SLN_1 OUTER ITERATION SUMMARY
 ----------------------------------------------------------------------------------------------------------------------------------------------------------------
                                OUTER      INNER  BACKTRACK  BACKTRACK        INCOMING        OUTGOING                    STEP   MAXIMUM CHANGE MODEL-(CELLID) OR
 OUTER ITERATION STEP       ITERATION  ITERATION       FLAG ITERATIONS        RESIDUAL        RESIDUAL  MAXIMUM CHANGE SUCCESS             MODEL-PACKAGE-(NUMBER)
 ----------------------------------------------------------------------------------------------------------------------------------------------------------------
 Backtracking                       1                     0          0       137.51418       137.51418                       *                                   
 Model                              1         39                                                            0.12354703                             1_GWF-(1,6,20)
 Backtracking                       2                     0          0       11.058114       11.058114                       *                                   
 Model                              2         13                                                        4.65383196E-03                            1_GWF-(1,10,16)
 Backtracking                       3                     0          0       3.4014184       3.4014184                       *                                   
 Model                              3          4                                                        7.61040226E-04       *                    1_GWF-(1,14,16)
 ----------------------------------------------------------------------------------------------------------------------------------------------------------------


 3 CALLS TO NUMERICAL SOLUTION IN TIME STEP 1 STRESS PERIOD 12
 56 TOTAL ITERATIONS
 
    Solving:  Stress period:    13    Time step:     1
 
1
                            STRESS PERIOD NO. 13, LENGTH =   31.00000    
                            -----------------------------------------------
                            NUMBER OF TIME STEPS = 1
                            MULTIPLIER FOR DELT =     1.000
                            INITIAL TIME STEP SIZE =   31.00000    

 SLN_1 OUTER ITERATION SUMMARY
 ----------------------------------------------------------------------------------------------------------------------------------------------------------------
                                OUTER      INNER  BACKTRACK  BACKTRACK        INCOMING        OUTGOING                    STEP   MAXIMUM CHANGE MODEL-(CELLID) OR
 OUTER ITERATION STEP       ITERATION  ITERATION       FLAG ITERATIONS        RESIDUAL        RESIDUAL  MAXIMUM CHANGE SUCCESS             MODEL-PACKAGE-(NUMBER)
 ----------------------------------------------------------------------------------------------------------------------------------------------------------------
 Backtracking                       1                     0          0       141.53052       141.53052                       *                                   
 Model                              1         48                                                       -8.44763621E-02                              1_GWF-(1,6,1)
 Backtracking                       2                     0          0       13.437240       13.437240                       *                                   
 Model                              2          7                                                       -2.94781484E-03                            1_GWF-(1,30,16)
 Backtracking                       3                     0          0       2.3956280       2.3956280                       *                                   
 Model                              3         11                                                       -1.97407050E-03                            1_GWF-(2,35,20)
 Backtracking                       4                     1          1       2.7230951       2.1973475                                                           
 Model                              4          4                                                       -3.03755595E-04       *                    1_GWF-(1,32,16)
 ----------------------------------------------------------------------------------------------------------------------------------------------------------------


 4 CALLS TO NUMERICAL SOLUTION IN TIME STEP 1 STRESS PERIOD 13
 70 TOTAL ITERATIONS
 
    Solving:  Stress period:    14    Time step:     1
 
1
                            STRESS PERIOD NO. 14, LENGTH =   31.00000    
                            -----------------------------------------------
                            NUMBER OF TIME STEPS = 1
                            MULTIPLIER FOR DELT =     1.000
                            INITIAL TIME STEP SIZE =   31.00000    

 SLN_1 OUTER ITERATION SUMMARY
 ----------------------------------------------------------------------------------------------------------------------------------------------------------------
                                OUTER      INNER  BACKTRACK  BACKTRACK        INCOMING        OUTGOING                    STEP   MAXIMUM CHANGE MODEL-(CELLID) OR
 OUTER ITERATION STEP       ITERATION  ITERATION       FLAG ITERATIONS        RESIDUAL        RESIDUAL  MAXIMUM CHANGE SUCCESS             MODEL-PACKAGE-(NUMBER)
 ----------------------------------------------------------------------------------------------------------------------------------------------------------------
 Backtracking                       1                     0          0       191.04567       191.04567                       *                                   
 Model                              1         46                                                            0.29471194                              1_GWF-(1,5,1)
 Backtracking                       2                     0          0       45.648450       45.648450                       *                                   
 Model                              2         20                                                        1.12575962E-02                            1_GWF-(1,39,16)
 Backtracking                       3                     0          0       7.9128919       7.9128919                       *                                   
 Model                              3          8                                                        1.92799965E-03                            1_GWF-(1,32,16)
 Backtracking                       4                     0          0       1.1594522       1.1594522                       *                                   
 Model                              4          8                                                        1.51664135E-03                            1_GWF-(2,35,20)
 Backtracking                       5                     0          0      0.93582449      0.93582449                       *                                   
 Model                              5          1                                                        9.97451164E-05       *                     1_GWF-(2,33,5)
 ----------------------------------------------------------------------------------------------------------------------------------------------------------------


 5 CALLS TO NUMERICAL SOLUTION IN TIME STEP 1 STRESS PERIOD 14
 83 TOTAL ITERATIONS
 
    Solving:  Stress period:    15    Time step:     1
 
1
                            STRESS PERIOD NO. 15, LENGTH =   28.00000    
                            -----------------------------------------------
                            NUMBER OF TIME STEPS = 1
                            MULTIPLIER FOR DELT =     1.000
                            INITIAL TIME STEP SIZE =   28.00000    

 SLN_1 OUTER ITERATION SUMMARY
 ----------------------------------------------------------------------------------------------------------------------------------------------------------------
                                OUTER      INNER  BACKTRACK  BACKTRACK        INCOMING        OUTGOING                    STEP   MAXIMUM CHANGE MODEL-(CELLID) OR
 OUTER ITERATION STEP       ITERATION  ITERATION       FLAG ITERATIONS        RESIDUAL        RESIDUAL  MAXIMUM CHANGE SUCCESS             MODEL-PACKAGE-(NUMBER)
 ----------------------------------------------------------------------------------------------------------------------------------------------------------------
 Backtracking                       1                     0          0       130.01407       130.01407                       *                                   
 Model                              1         43                                                            0.18119640                             1_GWF-(1,19,1)
 Backtracking                       2                     0          0       20.948793       20.948793                       *                                   
 Model                              2         16                                                        5.50603843E-03                            1_GWF-(1,30,16)
 Backtracking                       3                     0          0       4.9267430       4.9267430                       *                                   
 Model                              3          8                                                        1.27184962E-03                            1_GWF-(1,39,16)
 Backtracking                       4                     0          0       1.1898263       1.1898263                       *                                   
 Model                              4          2                                                        2.06540690E-04       *                    1_GWF-(1,38,16)
 ----------------------------------------------------------------------------------------------------------------------------------------------------------------


 4 CALLS TO NUMERICAL SOLUTION IN TIME STEP 1 STRESS PERIOD 15
 69 TOTAL ITERATIONS
 
    Solving:  Stress period:    16    Time step:     1
 
1
                            STRESS PERIOD NO. 16, LENGTH =   31.00000    
                            -----------------------------------------------
                            NUMBER OF TIME STEPS = 1
                            MULTIPLIER FOR DELT =     1.000
                            INITIAL TIME STEP SIZE =   31.00000    

 SLN_1 OUTER ITERATION SUMMARY
 ----------------------------------------------------------------------------------------------------------------------------------------------------------------
                                OUTER      INNER  BACKTRACK  BACKTRACK        INCOMING        OUTGOING                    STEP   MAXIMUM CHANGE MODEL-(CELLID) OR
 OUTER ITERATION STEP       ITERATION  ITERATION       FLAG ITERATIONS        RESIDUAL        RESIDUAL  MAXIMUM CHANGE SUCCESS             MODEL-PACKAGE-(NUMBER)
 ----------------------------------------------------------------------------------------------------------------------------------------------------------------
 Backtracking                       1                     0          0       229.49344       229.49344                       *                                   
 Model                              1         44                                                            0.36261693                             1_GWF-(1,18,4)
 Backtracking                       2                     0          0       55.118588       55.118588                       *                                   
 Model                              2         15                                                        1.34426260E-02                            1_GWF-(1,30,16)
 Backtracking                       3                     0          0       8.4465600       8.4465600                       *                                   
 Model                              3         14                                                        2.55116844E-03                            1_GWF-(1,32,16)
 Backtracking                       4                     0          0       2.5319810       2.5319810                       *                                   
 Model                              4          2                                                        2.31131650E-04       *                    1_GWF-(1,31,16)
 ----------------------------------------------------------------------------------------------------------------------------------------------------------------


 4 CALLS TO NUMERICAL SOLUTION IN TIME STEP 1 STRESS PERIOD 16
 75 TOTAL ITERATIONS
 
    Solving:  Stress period:    17    Time step:     1
 
1
                            STRESS PERIOD NO. 17, LENGTH =   30.00000    
                            -----------------------------------------------
                            NUMBER OF TIME STEPS = 1
                            MULTIPLIER FOR DELT =     1.000
                            INITIAL TIME STEP SIZE =   30.00000    

 SLN_1 OUTER ITERATION SUMMARY
 ----------------------------------------------------------------------------------------------------------------------------------------------------------------
                                OUTER      INNER  BACKTRACK  BACKTRACK        INCOMING        OUTGOING                    STEP   MAXIMUM CHANGE MODEL-(CELLID) OR
 OUTER ITERATION STEP       ITERATION  ITERATION       FLAG ITERATIONS        RESIDUAL        RESIDUAL  MAXIMUM CHANGE SUCCESS             MODEL-PACKAGE-(NUMBER)
 ----------------------------------------------------------------------------------------------------------------------------------------------------------------
 Backtracking                       1                     0          0       153.77087       153.77087                       *                                   
 Model                              1         47                                                           -0.17608109                             1_GWF-(1,10,1)
 Backtracking                       2                     0          0       44.825238       44.825238                       *                                   
 Model                              2         14                                                       -1.07689405E-02                            1_GWF-(1,30,16)
 Backtracking                       3                     0          0       6.9510425       6.9510425                       *                                   
 Model                              3         14                                                       -2.31563329E-03                            1_GWF-(1,32,16)
 Backtracking                       4                     0          0       2.3102120       2.3102120                       *                                   
 Model                              4          2                                                       -2.14561456E-04       *                    1_GWF-(1,31,16)
 ----------------------------------------------------------------------------------------------------------------------------------------------------------------


 4 CALLS TO NUMERICAL SOLUTION IN TIME STEP 1 STRESS PERIOD 17
 77 TOTAL ITERATIONS
 
    Solving:  Stress period:    18    Time step:     1
 
1
                            STRESS PERIOD NO. 18, LENGTH =   31.00000    
                            -----------------------------------------------
                            NUMBER OF TIME STEPS = 1
                            MULTIPLIER FOR DELT =     1.000
                            INITIAL TIME STEP SIZE =   31.00000    

 SLN_1 OUTER ITERATION SUMMARY
 ----------------------------------------------------------------------------------------------------------------------------------------------------------------
                                OUTER      INNER  BACKTRACK  BACKTRACK        INCOMING        OUTGOING                    STEP   MAXIMUM CHANGE MODEL-(CELLID) OR
 OUTER ITERATION STEP       ITERATION  ITERATION       FLAG ITERATIONS        RESIDUAL        RESIDUAL  MAXIMUM CHANGE SUCCESS             MODEL-PACKAGE-(NUMBER)
 ----------------------------------------------------------------------------------------------------------------------------------------------------------------
 Backtracking                       1                     0          0       202.29482       202.29482                       *                                   
 Model                              1         44                                                            0.20648246                              1_GWF-(1,4,6)
 Backtracking                       2                     0          0       59.407666       59.407666                       *                                   
 Model                              2         15                                                        1.47672065E-02                            1_GWF-(1,30,16)
 Backtracking                       3                     0          0       9.1605781       9.1605781                       *                                   
 Model                              3         14                                                        2.82207755E-03                            1_GWF-(1,32,16)
 Backtracking                       4                     0          0       1.6807761       1.6807761                       *                                   
 Model                              4          5                                                        3.57745325E-04       *                     1_GWF-(2,35,4)
 ----------------------------------------------------------------------------------------------------------------------------------------------------------------


 4 CALLS TO NUMERICAL SOLUTION IN TIME STEP 1 STRESS PERIOD 18
 78 TOTAL ITERATIONS
 
    Solving:  Stress period:    19    Time step:     1
 
1
                            STRESS PERIOD NO. 19, LENGTH =   30.00000    
                            -----------------------------------------------
                            NUMBER OF TIME STEPS = 1
                            MULTIPLIER FOR DELT =     1.000
                            INITIAL TIME STEP SIZE =   30.00000    

 SLN_1 OUTER ITERATION SUMMARY
 ----------------------------------------------------------------------------------------------------------------------------------------------------------------
                                OUTER      INNER  BACKTRACK  BACKTRACK        INCOMING        OUTGOING                    STEP   MAXIMUM CHANGE MODEL-(CELLID) OR
 OUTER ITERATION STEP       ITERATION  ITERATION       FLAG ITERATIONS        RESIDUAL        RESIDUAL  MAXIMUM CHANGE SUCCESS             MODEL-PACKAGE-(NUMBER)
 ----------------------------------------------------------------------------------------------------------------------------------------------------------------
 Backtracking                       1                     0          0       382.51221       382.51221                       *                                   
 Model                              1         49                                                           -0.28868661                            1_GWF-(1,35,13)
 Backtracking                       2                     0          0       78.565851       78.565851                       *                                   
 Model                              2         23                                                       -1.97169826E-02                            1_GWF-(1,30,16)
 Backtracking                       3                     0          0       13.250195       13.250195                       *                                   
 Model                              3         14                                                       -3.69172942E-03                            1_GWF-(1,32,16)
 Backtracking                       4                     0          0       1.7098478       1.7098478                       *                                   
 Model                              4          4                                                       -4.59597372E-04       *                    1_GWF-(1,39,16)
 ----------------------------------------------------------------------------------------------------------------------------------------------------------------


 4 CALLS TO NUMERICAL SOLUTION IN TIME STEP 1 STRESS PERIOD 19
 90 TOTAL ITERATIONS
 
    Solving:  Stress period:    20    Time step:     1
 
1
                            STRESS PERIOD NO. 20, LENGTH =   31.00000    
                            -----------------------------------------------
                            NUMBER OF TIME STEPS = 1
                            MULTIPLIER FOR DELT =     1.000
                            INITIAL TIME STEP SIZE =   31.00000    

 SLN_1 OUTER ITERATION SUMMARY
 ----------------------------------------------------------------------------------------------------------------------------------------------------------------
                                OUTER      INNER  BACKTRACK  BACKTRACK        INCOMING        OUTGOING                    STEP   MAXIMUM CHANGE MODEL-(CELLID) OR
 OUTER ITERATION STEP       ITERATION  ITERATION       FLAG ITERATIONS        RESIDUAL        RESIDUAL  MAXIMUM CHANGE SUCCESS             MODEL-PACKAGE-(NUMBER)
 ----------------------------------------------------------------------------------------------------------------------------------------------------------------
 Backtracking                       1                     0          0       199.25509       199.25509                       *                                   
 Model                              1         41                                                           -0.20748342                            1_GWF-(3,10,17)
 Backtracking                       2                     0          0       55.116207       55.116207                       *                                   
 Model                              2         16                                                       -1.36909542E-02                            1_GWF-(1,30,16)
 Backtracking                       3                     0          0       11.264801       11.264801                       *                                   
 Model                              3         16                                                       -3.32587486E-03                            1_GWF-(1,32,16)
 Backtracking                       4                     0          0       2.3641533       2.3641533                       *                                   
 Model                              4          4                                                       -4.40657820E-04       *                    1_GWF-(1,32,16)
 ----------------------------------------------------------------------------------------------------------------------------------------------------------------


 4 CALLS TO NUMERICAL SOLUTION IN TIME STEP 1 STRESS PERIOD 20
 77 TOTAL ITERATIONS
 
    Solving:  Stress period:    21    Time step:     1
 
1
                            STRESS PERIOD NO. 21, LENGTH =   31.00000    
                            -----------------------------------------------
                            NUMBER OF TIME STEPS = 1
                            MULTIPLIER FOR DELT =     1.000
                            INITIAL TIME STEP SIZE =   31.00000    

 SLN_1 OUTER ITERATION SUMMARY
 ----------------------------------------------------------------------------------------------------------------------------------------------------------------
                                OUTER      INNER  BACKTRACK  BACKTRACK        INCOMING        OUTGOING                    STEP   MAXIMUM CHANGE MODEL-(CELLID) OR
 OUTER ITERATION STEP       ITERATION  ITERATION       FLAG ITERATIONS        RESIDUAL        RESIDUAL  MAXIMUM CHANGE SUCCESS             MODEL-PACKAGE-(NUMBER)
 ----------------------------------------------------------------------------------------------------------------------------------------------------------------
 Backtracking                       1                     0          0       227.65151       227.65151                       *                                   
 Model                              1         44                                                           -0.15765990                             1_GWF-(1,30,7)
 Backtracking                       2                     0          0       24.472321       24.472321                       *                                   
 Model                              2         15                                                       -6.20782615E-03                            1_GWF-(1,30,16)
 Backtracking                       3                     0          0       5.0866825       5.0866825                       *                                   
 Model                              3          9                                                       -1.28420278E-03                            1_GWF-(1,32,16)
 Backtracking                       4                     0          0      0.93682313      0.93682313                       *                                   
 Model                              4          8                                                       -1.14130925E-03                            1_GWF-(2,35,20)
 Backtracking                       5                     0          0      0.96108673      0.96108673                       *                                   
 Model                              5          1                                                       -7.34659851E-05       *                    1_GWF-(3,35,13)
 ----------------------------------------------------------------------------------------------------------------------------------------------------------------


 5 CALLS TO NUMERICAL SOLUTION IN TIME STEP 1 STRESS PERIOD 21
 77 TOTAL ITERATIONS
 
    Solving:  Stress period:    22    Time step:     1
 
1
                            STRESS PERIOD NO. 22, LENGTH =   30.00000    
                            -----------------------------------------------
                            NUMBER OF TIME STEPS = 1
                            MULTIPLIER FOR DELT =     1.000
                            INITIAL TIME STEP SIZE =   30.00000    

 SLN_1 OUTER ITERATION SUMMARY
 ----------------------------------------------------------------------------------------------------------------------------------------------------------------
                                OUTER      INNER  BACKTRACK  BACKTRACK        INCOMING        OUTGOING                    STEP   MAXIMUM CHANGE MODEL-(CELLID) OR
 OUTER ITERATION STEP       ITERATION  ITERATION       FLAG ITERATIONS        RESIDUAL        RESIDUAL  MAXIMUM CHANGE SUCCESS             MODEL-PACKAGE-(NUMBER)
 ----------------------------------------------------------------------------------------------------------------------------------------------------------------
 Backtracking                       1                     0          0       247.11421       247.11421                       *                                   
 Model                              1         47                                                           -0.14694964                            1_GWF-(3,10,17)
 Backtracking                       2                     0          0       26.299270       26.299270                       *                                   
 Model                              2         16                                                       -6.67660642E-03                            1_GWF-(1,30,16)
 Backtracking                       3                     0          0       6.5516754       6.5516754                       *                                   
 Model                              3          8                                                       -1.61802222E-03                            1_GWF-(1,32,16)
 Backtracking                       4                     0          0       1.2285725       1.2285725                       *                                   
 Model                              4          8                                                       -1.28083161E-03                            1_GWF-(2,35,20)
 Backtracking                       5                     0          0      0.66076830      0.66076830                       *                                   
 Model                              5          1                                                       -7.62994779E-05       *                     1_GWF-(1,31,3)
 ----------------------------------------------------------------------------------------------------------------------------------------------------------------


 5 CALLS TO NUMERICAL SOLUTION IN TIME STEP 1 STRESS PERIOD 22
 80 TOTAL ITERATIONS
 
    Solving:  Stress period:    23    Time step:     1
 
1
                            STRESS PERIOD NO. 23, LENGTH =   31.00000    
                            -----------------------------------------------
                            NUMBER OF TIME STEPS = 1
                            MULTIPLIER FOR DELT =     1.000
                            INITIAL TIME STEP SIZE =   31.00000    

 SLN_1 OUTER ITERATION SUMMARY
 ----------------------------------------------------------------------------------------------------------------------------------------------------------------
                                OUTER      INNER  BACKTRACK  BACKTRACK        INCOMING        OUTGOING                    STEP   MAXIMUM CHANGE MODEL-(CELLID) OR
 OUTER ITERATION STEP       ITERATION  ITERATION       FLAG ITERATIONS        RESIDUAL        RESIDUAL  MAXIMUM CHANGE SUCCESS             MODEL-PACKAGE-(NUMBER)
 ----------------------------------------------------------------------------------------------------------------------------------------------------------------
 Backtracking                       1                     0          0       379.76346       379.76346                       *                                   
 Model                              1         39                                                            0.18989069                            1_GWF-(3,10,17)
 Backtracking                       2                     0          0       31.558232       31.558232                       *                                   
 Model                              2         20                                                        7.72465174E-03                            1_GWF-(1,28,16)
 Backtracking                       3                     0          0       9.5447756       9.5447756                       *                                   
 Model                              3          8                                                        1.98724115E-03                            1_GWF-(1,31,16)
 Backtracking                       4                     0          0       1.9840143       1.9840143                       *                                   
 Model                              4          9                                                        1.64587042E-03                            1_GWF-(2,35,20)
 Backtracking                       5                     0          0       1.8264830       1.8264830                       *                                   
 Model                              5          2                                                        1.64583957E-04       *                    1_GWF-(3,34,20)
 ----------------------------------------------------------------------------------------------------------------------------------------------------------------


 5 CALLS TO NUMERICAL SOLUTION IN TIME STEP 1 STRESS PERIOD 23
 78 TOTAL ITERATIONS
 
    Solving:  Stress period:    24    Time step:     1
 
1
                            STRESS PERIOD NO. 24, LENGTH =   30.00000    
                            -----------------------------------------------
                            NUMBER OF TIME STEPS = 1
                            MULTIPLIER FOR DELT =     1.000
                            INITIAL TIME STEP SIZE =   30.00000    

 SLN_1 OUTER ITERATION SUMMARY
 ----------------------------------------------------------------------------------------------------------------------------------------------------------------
                                OUTER      INNER  BACKTRACK  BACKTRACK        INCOMING        OUTGOING                    STEP   MAXIMUM CHANGE MODEL-(CELLID) OR
 OUTER ITERATION STEP       ITERATION  ITERATION       FLAG ITERATIONS        RESIDUAL        RESIDUAL  MAXIMUM CHANGE SUCCESS             MODEL-PACKAGE-(NUMBER)
 ----------------------------------------------------------------------------------------------------------------------------------------------------------------
 Backtracking                       1                     0          0       139.10624       139.10624                       *                                   
 Model                              1         47                                                            0.17103920                             1_GWF-(1,30,1)
 Backtracking                       2                     0          0       30.607901       30.607901                       *                                   
 Model                              2         20                                                        8.29237325E-03                            1_GWF-(1,39,16)
 Backtracking                       3                     0          0       4.9529672       4.9529672                       *                                   
 Model                              3          8                                                        1.34004202E-03                            1_GWF-(1,39,16)
 Backtracking                       4                     0          0      0.71349018      0.71349018                       *                                   
 Model                              4          7                                                        1.03278784E-03                            1_GWF-(2,36,19)
 Backtracking                       5                     4          0       1.3838764       1.3838764                       *                                   
 Model                              5          2                                                        2.34443037E-04       *                    1_GWF-(1,36,19)
 ----------------------------------------------------------------------------------------------------------------------------------------------------------------


 5 CALLS TO NUMERICAL SOLUTION IN TIME STEP 1 STRESS PERIOD 24
 84 TOTAL ITERATIONS
 
    Solving:  Stress period:    25    Time step:     1
 
1
                            STRESS PERIOD NO. 25, LENGTH =   31.00000    
                            -----------------------------------------------
                            NUMBER OF TIME STEPS = 1
                            MULTIPLIER FOR DELT =     1.000
                            INITIAL TIME STEP SIZE =   31.00000    

 SLN_1 OUTER ITERATION SUMMARY
 ----------------------------------------------------------------------------------------------------------------------------------------------------------------
                                OUTER      INNER  BACKTRACK  BACKTRACK        INCOMING        OUTGOING                    STEP   MAXIMUM CHANGE MODEL-(CELLID) OR
 OUTER ITERATION STEP       ITERATION  ITERATION       FLAG ITERATIONS        RESIDUAL        RESIDUAL  MAXIMUM CHANGE SUCCESS             MODEL-PACKAGE-(NUMBER)
 ----------------------------------------------------------------------------------------------------------------------------------------------------------------
 Backtracking                       1                     0          0       201.14607       201.14607                       *                                   
 Model                              1         30                                                            0.14300830                            1_GWF-(3,10,17)
 Backtracking                       2                     0          0       21.819299       21.819299                       *                                   
 Model                              2         17                                                        5.62726087E-03                            1_GWF-(1,28,16)
 Backtracking                       3                     0          0       7.7229058       7.7229058                       *                                   
 Model                              3          7                                                        1.43396373E-03                            1_GWF-(1,39,16)
 Backtracking                       4                     0          0       1.7042912       1.7042912                       *                                   
 Model                              4          2                                                        2.87089174E-04       *                    1_GWF-(1,36,16)
 ----------------------------------------------------------------------------------------------------------------------------------------------------------------


 4 CALLS TO NUMERICAL SOLUTION IN TIME STEP 1 STRESS PERIOD 25
 56 TOTAL ITERATIONS


 Solution SLN_1 summary
 ----------------------------------------------------------------------
 Total formulate time:  .7812500000000000E-01 seconds
 Total solution time:   .2187500000000000 seconds


 MEMORY MANAGER TOTAL STORAGE BY DATA TYPE, IN MEGABYTES
 -------------------------------
                    ALLOCATED   
 DATA TYPE           MEMORY     
 -------------------------------
 Character        5.73300000E-03
 Logical          4.40000000E-05
 Integer          0.61834400    
 Real             1.1723440     
 -------------------------------
 Total            1.7964650     
 -------------------------------


 
 Run end date and time (yyyy/mm/dd hh:mm:ss): 2022/03/31 13:57:21
 Elapsed run time:  1.108 Seconds
 Normal termination of simulation.
