                                   MODFLOW 6
                U.S. GEOLOGICAL SURVEY MODULAR HYDROLOGIC MODEL
                   VERSION 6.3.0 release candidate 02/06/2022
                               ***DEVELOP MODE***

   MODFLOW 6 compiled Feb 06 2022 02:35:51 with Intel(R) Fortran Intel(R) 64
   Compiler Classic for applications running on Intel(R) 64, Version 2021.5.0
                             Build 20211109_000000

This software is preliminary or provisional and is subject to 
revision. It is being provided to meet the need for timely best 
science. The software has not received final approval by the U.S. 
Geological Survey (USGS). No warranty, expressed or implied, is made 
by the USGS or the U.S. Government as to the functionality of the 
software and related material nor shall the fact of release 
constitute any such warranty. The software is provided on the 
condition that neither the USGS nor the U.S. Government shall be held 
liable for any damages resulting from the authorized or unauthorized 
use of the software.


As a work of the United States Government, this USGS product is 
in the public domain within the United States. You can copy, 
modify, distribute, and perform the work, even for commercial 
purposes, all without asking permission. Additionally, USGS 
waives copyright and related rights in the work worldwide 
through CC0 1.0 Universal Public Domain Dedication 
(https://creativecommons.org/publicdomain/zero/1.0/).

The following GNU Lesser General Public License (LGPL) libraries
are used in this USGS product:

    SPARSKIT version 2.0
      ilut, luson, and qsplit 
      (https://www-users.cse.umn.edu/~saad/software/SPARSKIT/)

    RCM - Reverse Cuthill McKee Ordering
      (https://people.math.sc.edu/Burkardt/f_src/rcm/rcm.html)

    BLAS - Basic Linear Algebra Subprograms Level 1
      (https://people.math.sc.edu/Burkardt/f_src/blas1_d/blas1_d.html)

    SPARSEKIT - Sparse Matrix Utility Package
      amux, dperm, dvperm, rperm, and cperm
      (https://people.sc.fsu.edu/~jburkardt/f77_src/sparsekit/sparsekit.html)

The following BSD-3 License libraries are used in this USGS product:

    Modern Fortran DAG Library
      Copyright (c) 2018, Jacob Williams
      All rights reserved.
      (https://github.com/jacobwilliams/daglib)

MODFLOW 6 compiler options: /O2 /heap-arrays:0 /fpe:0 /traceback /nologo /fpp
/c /module:.\mod_temp\ /object:.\obj_temp\

System command used to initiate simulation:
mf6.exe

MODFLOW was compiled using uniform precision.

Real Variables
  KIND: 8
  TINY (smallest non-zero value):    2.225074-308
  HUGE (largest value):    1.797693+308
  PRECISION: 15
  BIT SIZE: 64

Integer Variables
  KIND: 4
  HUGE (largest value): 2147483647
  BIT SIZE: 32

Long Integer Variables
  KIND: 8
  HUGE (largest value): 9223372036854775807
  BIT SIZE: 64

Logical Variables
  KIND: 4
  BIT SIZE: 32
 

 OPENED mfsim.nam
 FILE TYPE:NAM   UNIT 1001   STATUS:OLD                 
 FORMAT:FORMATTED              ACCESS:SEQUENTIAL          
 ACTION:READ                

 # File generated by Flopy version 3.3.6 on 05/06/2022 at 17:25:10.

 READING SIMULATION OPTIONS
    SIMULATION WILL CONTINUE EVEN IF THERE IS NONCONVERGENCE.
 END OF SIMULATION OPTIONS

 READING SIMULATION TIMING

 OPENED freyberg6.tdis
 FILE TYPE:TDIS   UNIT 1002   STATUS:OLD                 
 FORMAT:FORMATTED              ACCESS:SEQUENTIAL          
 ACTION:READ                


 TDIS -- TEMPORAL DISCRETIZATION PACKAGE,
 VERSION 1 : 11/13/2014 - INPUT READ FROM UNIT 1002
 # File generated by Flopy version 3.3.6 on 05/06/2022 at 17:25:10.
 PROCESSING TDIS OPTIONS
    SIMULATION TIME UNIT IS DAYS
 END OF TDIS OPTIONS
 PROCESSING TDIS DIMENSIONS
  732 STRESS PERIOD(S) IN SIMULATION
 END OF TDIS DIMENSIONS
 PROCESSING TDIS PERIODDATA


 STRESS PERIOD     LENGTH       TIME STEPS     MULTIPLIER FOR DELT
 ----------------------------------------------------------------------------
        1         3652.500          1                    1.000
        2         1.000000          1                    1.000
        3         1.000000          1                    1.000
        4         1.000000          1                    1.000
        5         1.000000          1                    1.000
        6         1.000000          1                    1.000
        7         1.000000          1                    1.000
        8         1.000000          1                    1.000
        9         1.000000          1                    1.000
       10         1.000000          1                    1.000
       11         1.000000          1                    1.000
       12         1.000000          1                    1.000
       13         1.000000          1                    1.000
       14         1.000000          1                    1.000
       15         1.000000          1                    1.000
       16         1.000000          1                    1.000
       17         1.000000          1                    1.000
       18         1.000000          1                    1.000
       19         1.000000          1                    1.000
       20         1.000000          1                    1.000
       21         1.000000          1                    1.000
       22         1.000000          1                    1.000
       23         1.000000          1                    1.000
       24         1.000000          1                    1.000
       25         1.000000          1                    1.000
       26         1.000000          1                    1.000
       27         1.000000          1                    1.000
       28         1.000000          1                    1.000
       29         1.000000          1                    1.000
       30         1.000000          1                    1.000
       31         1.000000          1                    1.000
       32         1.000000          1                    1.000
       33         1.000000          1                    1.000
       34         1.000000          1                    1.000
       35         1.000000          1                    1.000
       36         1.000000          1                    1.000
       37         1.000000          1                    1.000
       38         1.000000          1                    1.000
       39         1.000000          1                    1.000
       40         1.000000          1                    1.000
       41         1.000000          1                    1.000
       42         1.000000          1                    1.000
       43         1.000000          1                    1.000
       44         1.000000          1                    1.000
       45         1.000000          1                    1.000
       46         1.000000          1                    1.000
       47         1.000000          1                    1.000
       48         1.000000          1                    1.000
       49         1.000000          1                    1.000
       50         1.000000          1                    1.000
       51         1.000000          1                    1.000
       52         1.000000          1                    1.000
       53         1.000000          1                    1.000
       54         1.000000          1                    1.000
       55         1.000000          1                    1.000
       56         1.000000          1                    1.000
       57         1.000000          1                    1.000
       58         1.000000          1                    1.000
       59         1.000000          1                    1.000
       60         1.000000          1                    1.000
       61         1.000000          1                    1.000
       62         1.000000          1                    1.000
       63         1.000000          1                    1.000
       64         1.000000          1                    1.000
       65         1.000000          1                    1.000
       66         1.000000          1                    1.000
       67         1.000000          1                    1.000
       68         1.000000          1                    1.000
       69         1.000000          1                    1.000
       70         1.000000          1                    1.000
       71         1.000000          1                    1.000
       72         1.000000          1                    1.000
       73         1.000000          1                    1.000
       74         1.000000          1                    1.000
       75         1.000000          1                    1.000
       76         1.000000          1                    1.000
       77         1.000000          1                    1.000
       78         1.000000          1                    1.000
       79         1.000000          1                    1.000
       80         1.000000          1                    1.000
       81         1.000000          1                    1.000
       82         1.000000          1                    1.000
       83         1.000000          1                    1.000
       84         1.000000          1                    1.000
       85         1.000000          1                    1.000
       86         1.000000          1                    1.000
       87         1.000000          1                    1.000
       88         1.000000          1                    1.000
       89         1.000000          1                    1.000
       90         1.000000          1                    1.000
       91         1.000000          1                    1.000
       92         1.000000          1                    1.000
       93         1.000000          1                    1.000
       94         1.000000          1                    1.000
       95         1.000000          1                    1.000
       96         1.000000          1                    1.000
       97         1.000000          1                    1.000
       98         1.000000          1                    1.000
       99         1.000000          1                    1.000
      100         1.000000          1                    1.000
      101         1.000000          1                    1.000
      102         1.000000          1                    1.000
      103         1.000000          1                    1.000
      104         1.000000          1                    1.000
      105         1.000000          1                    1.000
      106         1.000000          1                    1.000
      107         1.000000          1                    1.000
      108         1.000000          1                    1.000
      109         1.000000          1                    1.000
      110         1.000000          1                    1.000
      111         1.000000          1                    1.000
      112         1.000000          1                    1.000
      113         1.000000          1                    1.000
      114         1.000000          1                    1.000
      115         1.000000          1                    1.000
      116         1.000000          1                    1.000
      117         1.000000          1                    1.000
      118         1.000000          1                    1.000
      119         1.000000          1                    1.000
      120         1.000000          1                    1.000
      121         1.000000          1                    1.000
      122         1.000000          1                    1.000
      123         1.000000          1                    1.000
      124         1.000000          1                    1.000
      125         1.000000          1                    1.000
      126         1.000000          1                    1.000
      127         1.000000          1                    1.000
      128         1.000000          1                    1.000
      129         1.000000          1                    1.000
      130         1.000000          1                    1.000
      131         1.000000          1                    1.000
      132         1.000000          1                    1.000
      133         1.000000          1                    1.000
      134         1.000000          1                    1.000
      135         1.000000          1                    1.000
      136         1.000000          1                    1.000
      137         1.000000          1                    1.000
      138         1.000000          1                    1.000
      139         1.000000          1                    1.000
      140         1.000000          1                    1.000
      141         1.000000          1                    1.000
      142         1.000000          1                    1.000
      143         1.000000          1                    1.000
      144         1.000000          1                    1.000
      145         1.000000          1                    1.000
      146         1.000000          1                    1.000
      147         1.000000          1                    1.000
      148         1.000000          1                    1.000
      149         1.000000          1                    1.000
      150         1.000000          1                    1.000
      151         1.000000          1                    1.000
      152         1.000000          1                    1.000
      153         1.000000          1                    1.000
      154         1.000000          1                    1.000
      155         1.000000          1                    1.000
      156         1.000000          1                    1.000
      157         1.000000          1                    1.000
      158         1.000000          1                    1.000
      159         1.000000          1                    1.000
      160         1.000000          1                    1.000
      161         1.000000          1                    1.000
      162         1.000000          1                    1.000
      163         1.000000          1                    1.000
      164         1.000000          1                    1.000
      165         1.000000          1                    1.000
      166         1.000000          1                    1.000
      167         1.000000          1                    1.000
      168         1.000000          1                    1.000
      169         1.000000          1                    1.000
      170         1.000000          1                    1.000
      171         1.000000          1                    1.000
      172         1.000000          1                    1.000
      173         1.000000          1                    1.000
      174         1.000000          1                    1.000
      175         1.000000          1                    1.000
      176         1.000000          1                    1.000
      177         1.000000          1                    1.000
      178         1.000000          1                    1.000
      179         1.000000          1                    1.000
      180         1.000000          1                    1.000
      181         1.000000          1                    1.000
      182         1.000000          1                    1.000
      183         1.000000          1                    1.000
      184         1.000000          1                    1.000
      185         1.000000          1                    1.000
      186         1.000000          1                    1.000
      187         1.000000          1                    1.000
      188         1.000000          1                    1.000
      189         1.000000          1                    1.000
      190         1.000000          1                    1.000
      191         1.000000          1                    1.000
      192         1.000000          1                    1.000
      193         1.000000          1                    1.000
      194         1.000000          1                    1.000
      195         1.000000          1                    1.000
      196         1.000000          1                    1.000
      197         1.000000          1                    1.000
      198         1.000000          1                    1.000
      199         1.000000          1                    1.000
      200         1.000000          1                    1.000
      201         1.000000          1                    1.000
      202         1.000000          1                    1.000
      203         1.000000          1                    1.000
      204         1.000000          1                    1.000
      205         1.000000          1                    1.000
      206         1.000000          1                    1.000
      207         1.000000          1                    1.000
      208         1.000000          1                    1.000
      209         1.000000          1                    1.000
      210         1.000000          1                    1.000
      211         1.000000          1                    1.000
      212         1.000000          1                    1.000
      213         1.000000          1                    1.000
      214         1.000000          1                    1.000
      215         1.000000          1                    1.000
      216         1.000000          1                    1.000
      217         1.000000          1                    1.000
      218         1.000000          1                    1.000
      219         1.000000          1                    1.000
      220         1.000000          1                    1.000
      221         1.000000          1                    1.000
      222         1.000000          1                    1.000
      223         1.000000          1                    1.000
      224         1.000000          1                    1.000
      225         1.000000          1                    1.000
      226         1.000000          1                    1.000
      227         1.000000          1                    1.000
      228         1.000000          1                    1.000
      229         1.000000          1                    1.000
      230         1.000000          1                    1.000
      231         1.000000          1                    1.000
      232         1.000000          1                    1.000
      233         1.000000          1                    1.000
      234         1.000000          1                    1.000
      235         1.000000          1                    1.000
      236         1.000000          1                    1.000
      237         1.000000          1                    1.000
      238         1.000000          1                    1.000
      239         1.000000          1                    1.000
      240         1.000000          1                    1.000
      241         1.000000          1                    1.000
      242         1.000000          1                    1.000
      243         1.000000          1                    1.000
      244         1.000000          1                    1.000
      245         1.000000          1                    1.000
      246         1.000000          1                    1.000
      247         1.000000          1                    1.000
      248         1.000000          1                    1.000
      249         1.000000          1                    1.000
      250         1.000000          1                    1.000
      251         1.000000          1                    1.000
      252         1.000000          1                    1.000
      253         1.000000          1                    1.000
      254         1.000000          1                    1.000
      255         1.000000          1                    1.000
      256         1.000000          1                    1.000
      257         1.000000          1                    1.000
      258         1.000000          1                    1.000
      259         1.000000          1                    1.000
      260         1.000000          1                    1.000
      261         1.000000          1                    1.000
      262         1.000000          1                    1.000
      263         1.000000          1                    1.000
      264         1.000000          1                    1.000
      265         1.000000          1                    1.000
      266         1.000000          1                    1.000
      267         1.000000          1                    1.000
      268         1.000000          1                    1.000
      269         1.000000          1                    1.000
      270         1.000000          1                    1.000
      271         1.000000          1                    1.000
      272         1.000000          1                    1.000
      273         1.000000          1                    1.000
      274         1.000000          1                    1.000
      275         1.000000          1                    1.000
      276         1.000000          1                    1.000
      277         1.000000          1                    1.000
      278         1.000000          1                    1.000
      279         1.000000          1                    1.000
      280         1.000000          1                    1.000
      281         1.000000          1                    1.000
      282         1.000000          1                    1.000
      283         1.000000          1                    1.000
      284         1.000000          1                    1.000
      285         1.000000          1                    1.000
      286         1.000000          1                    1.000
      287         1.000000          1                    1.000
      288         1.000000          1                    1.000
      289         1.000000          1                    1.000
      290         1.000000          1                    1.000
      291         1.000000          1                    1.000
      292         1.000000          1                    1.000
      293         1.000000          1                    1.000
      294         1.000000          1                    1.000
      295         1.000000          1                    1.000
      296         1.000000          1                    1.000
      297         1.000000          1                    1.000
      298         1.000000          1                    1.000
      299         1.000000          1                    1.000
      300         1.000000          1                    1.000
      301         1.000000          1                    1.000
      302         1.000000          1                    1.000
      303         1.000000          1                    1.000
      304         1.000000          1                    1.000
      305         1.000000          1                    1.000
      306         1.000000          1                    1.000
      307         1.000000          1                    1.000
      308         1.000000          1                    1.000
      309         1.000000          1                    1.000
      310         1.000000          1                    1.000
      311         1.000000          1                    1.000
      312         1.000000          1                    1.000
      313         1.000000          1                    1.000
      314         1.000000          1                    1.000
      315         1.000000          1                    1.000
      316         1.000000          1                    1.000
      317         1.000000          1                    1.000
      318         1.000000          1                    1.000
      319         1.000000          1                    1.000
      320         1.000000          1                    1.000
      321         1.000000          1                    1.000
      322         1.000000          1                    1.000
      323         1.000000          1                    1.000
      324         1.000000          1                    1.000
      325         1.000000          1                    1.000
      326         1.000000          1                    1.000
      327         1.000000          1                    1.000
      328         1.000000          1                    1.000
      329         1.000000          1                    1.000
      330         1.000000          1                    1.000
      331         1.000000          1                    1.000
      332         1.000000          1                    1.000
      333         1.000000          1                    1.000
      334         1.000000          1                    1.000
      335         1.000000          1                    1.000
      336         1.000000          1                    1.000
      337         1.000000          1                    1.000
      338         1.000000          1                    1.000
      339         1.000000          1                    1.000
      340         1.000000          1                    1.000
      341         1.000000          1                    1.000
      342         1.000000          1                    1.000
      343         1.000000          1                    1.000
      344         1.000000          1                    1.000
      345         1.000000          1                    1.000
      346         1.000000          1                    1.000
      347         1.000000          1                    1.000
      348         1.000000          1                    1.000
      349         1.000000          1                    1.000
      350         1.000000          1                    1.000
      351         1.000000          1                    1.000
      352         1.000000          1                    1.000
      353         1.000000          1                    1.000
      354         1.000000          1                    1.000
      355         1.000000          1                    1.000
      356         1.000000          1                    1.000
      357         1.000000          1                    1.000
      358         1.000000          1                    1.000
      359         1.000000          1                    1.000
      360         1.000000          1                    1.000
      361         1.000000          1                    1.000
      362         1.000000          1                    1.000
      363         1.000000          1                    1.000
      364         1.000000          1                    1.000
      365         1.000000          1                    1.000
      366         1.000000          1                    1.000
      367         1.000000          1                    1.000
      368         1.000000          1                    1.000
      369         1.000000          1                    1.000
      370         1.000000          1                    1.000
      371         1.000000          1                    1.000
      372         1.000000          1                    1.000
      373         1.000000          1                    1.000
      374         1.000000          1                    1.000
      375         1.000000          1                    1.000
      376         1.000000          1                    1.000
      377         1.000000          1                    1.000
      378         1.000000          1                    1.000
      379         1.000000          1                    1.000
      380         1.000000          1                    1.000
      381         1.000000          1                    1.000
      382         1.000000          1                    1.000
      383         1.000000          1                    1.000
      384         1.000000          1                    1.000
      385         1.000000          1                    1.000
      386         1.000000          1                    1.000
      387         1.000000          1                    1.000
      388         1.000000          1                    1.000
      389         1.000000          1                    1.000
      390         1.000000          1                    1.000
      391         1.000000          1                    1.000
      392         1.000000          1                    1.000
      393         1.000000          1                    1.000
      394         1.000000          1                    1.000
      395         1.000000          1                    1.000
      396         1.000000          1                    1.000
      397         1.000000          1                    1.000
      398         1.000000          1                    1.000
      399         1.000000          1                    1.000
      400         1.000000          1                    1.000
      401         1.000000          1                    1.000
      402         1.000000          1                    1.000
      403         1.000000          1                    1.000
      404         1.000000          1                    1.000
      405         1.000000          1                    1.000
      406         1.000000          1                    1.000
      407         1.000000          1                    1.000
      408         1.000000          1                    1.000
      409         1.000000          1                    1.000
      410         1.000000          1                    1.000
      411         1.000000          1                    1.000
      412         1.000000          1                    1.000
      413         1.000000          1                    1.000
      414         1.000000          1                    1.000
      415         1.000000          1                    1.000
      416         1.000000          1                    1.000
      417         1.000000          1                    1.000
      418         1.000000          1                    1.000
      419         1.000000          1                    1.000
      420         1.000000          1                    1.000
      421         1.000000          1                    1.000
      422         1.000000          1                    1.000
      423         1.000000          1                    1.000
      424         1.000000          1                    1.000
      425         1.000000          1                    1.000
      426         1.000000          1                    1.000
      427         1.000000          1                    1.000
      428         1.000000          1                    1.000
      429         1.000000          1                    1.000
      430         1.000000          1                    1.000
      431         1.000000          1                    1.000
      432         1.000000          1                    1.000
      433         1.000000          1                    1.000
      434         1.000000          1                    1.000
      435         1.000000          1                    1.000
      436         1.000000          1                    1.000
      437         1.000000          1                    1.000
      438         1.000000          1                    1.000
      439         1.000000          1                    1.000
      440         1.000000          1                    1.000
      441         1.000000          1                    1.000
      442         1.000000          1                    1.000
      443         1.000000          1                    1.000
      444         1.000000          1                    1.000
      445         1.000000          1                    1.000
      446         1.000000          1                    1.000
      447         1.000000          1                    1.000
      448         1.000000          1                    1.000
      449         1.000000          1                    1.000
      450         1.000000          1                    1.000
      451         1.000000          1                    1.000
      452         1.000000          1                    1.000
      453         1.000000          1                    1.000
      454         1.000000          1                    1.000
      455         1.000000          1                    1.000
      456         1.000000          1                    1.000
      457         1.000000          1                    1.000
      458         1.000000          1                    1.000
      459         1.000000          1                    1.000
      460         1.000000          1                    1.000
      461         1.000000          1                    1.000
      462         1.000000          1                    1.000
      463         1.000000          1                    1.000
      464         1.000000          1                    1.000
      465         1.000000          1                    1.000
      466         1.000000          1                    1.000
      467         1.000000          1                    1.000
      468         1.000000          1                    1.000
      469         1.000000          1                    1.000
      470         1.000000          1                    1.000
      471         1.000000          1                    1.000
      472         1.000000          1                    1.000
      473         1.000000          1                    1.000
      474         1.000000          1                    1.000
      475         1.000000          1                    1.000
      476         1.000000          1                    1.000
      477         1.000000          1                    1.000
      478         1.000000          1                    1.000
      479         1.000000          1                    1.000
      480         1.000000          1                    1.000
      481         1.000000          1                    1.000
      482         1.000000          1                    1.000
      483         1.000000          1                    1.000
      484         1.000000          1                    1.000
      485         1.000000          1                    1.000
      486         1.000000          1                    1.000
      487         1.000000          1                    1.000
      488         1.000000          1                    1.000
      489         1.000000          1                    1.000
      490         1.000000          1                    1.000
      491         1.000000          1                    1.000
      492         1.000000          1                    1.000
      493         1.000000          1                    1.000
      494         1.000000          1                    1.000
      495         1.000000          1                    1.000
      496         1.000000          1                    1.000
      497         1.000000          1                    1.000
      498         1.000000          1                    1.000
      499         1.000000          1                    1.000
      500         1.000000          1                    1.000
      501         1.000000          1                    1.000
      502         1.000000          1                    1.000
      503         1.000000          1                    1.000
      504         1.000000          1                    1.000
      505         1.000000          1                    1.000
      506         1.000000          1                    1.000
      507         1.000000          1                    1.000
      508         1.000000          1                    1.000
      509         1.000000          1                    1.000
      510         1.000000          1                    1.000
      511         1.000000          1                    1.000
      512         1.000000          1                    1.000
      513         1.000000          1                    1.000
      514         1.000000          1                    1.000
      515         1.000000          1                    1.000
      516         1.000000          1                    1.000
      517         1.000000          1                    1.000
      518         1.000000          1                    1.000
      519         1.000000          1                    1.000
      520         1.000000          1                    1.000
      521         1.000000          1                    1.000
      522         1.000000          1                    1.000
      523         1.000000          1                    1.000
      524         1.000000          1                    1.000
      525         1.000000          1                    1.000
      526         1.000000          1                    1.000
      527         1.000000          1                    1.000
      528         1.000000          1                    1.000
      529         1.000000          1                    1.000
      530         1.000000          1                    1.000
      531         1.000000          1                    1.000
      532         1.000000          1                    1.000
      533         1.000000          1                    1.000
      534         1.000000          1                    1.000
      535         1.000000          1                    1.000
      536         1.000000          1                    1.000
      537         1.000000          1                    1.000
      538         1.000000          1                    1.000
      539         1.000000          1                    1.000
      540         1.000000          1                    1.000
      541         1.000000          1                    1.000
      542         1.000000          1                    1.000
      543         1.000000          1                    1.000
      544         1.000000          1                    1.000
      545         1.000000          1                    1.000
      546         1.000000          1                    1.000
      547         1.000000          1                    1.000
      548         1.000000          1                    1.000
      549         1.000000          1                    1.000
      550         1.000000          1                    1.000
      551         1.000000          1                    1.000
      552         1.000000          1                    1.000
      553         1.000000          1                    1.000
      554         1.000000          1                    1.000
      555         1.000000          1                    1.000
      556         1.000000          1                    1.000
      557         1.000000          1                    1.000
      558         1.000000          1                    1.000
      559         1.000000          1                    1.000
      560         1.000000          1                    1.000
      561         1.000000          1                    1.000
      562         1.000000          1                    1.000
      563         1.000000          1                    1.000
      564         1.000000          1                    1.000
      565         1.000000          1                    1.000
      566         1.000000          1                    1.000
      567         1.000000          1                    1.000
      568         1.000000          1                    1.000
      569         1.000000          1                    1.000
      570         1.000000          1                    1.000
      571         1.000000          1                    1.000
      572         1.000000          1                    1.000
      573         1.000000          1                    1.000
      574         1.000000          1                    1.000
      575         1.000000          1                    1.000
      576         1.000000          1                    1.000
      577         1.000000          1                    1.000
      578         1.000000          1                    1.000
      579         1.000000          1                    1.000
      580         1.000000          1                    1.000
      581         1.000000          1                    1.000
      582         1.000000          1                    1.000
      583         1.000000          1                    1.000
      584         1.000000          1                    1.000
      585         1.000000          1                    1.000
      586         1.000000          1                    1.000
      587         1.000000          1                    1.000
      588         1.000000          1                    1.000
      589         1.000000          1                    1.000
      590         1.000000          1                    1.000
      591         1.000000          1                    1.000
      592         1.000000          1                    1.000
      593         1.000000          1                    1.000
      594         1.000000          1                    1.000
      595         1.000000          1                    1.000
      596         1.000000          1                    1.000
      597         1.000000          1                    1.000
      598         1.000000          1                    1.000
      599         1.000000          1                    1.000
      600         1.000000          1                    1.000
      601         1.000000          1                    1.000
      602         1.000000          1                    1.000
      603         1.000000          1                    1.000
      604         1.000000          1                    1.000
      605         1.000000          1                    1.000
      606         1.000000          1                    1.000
      607         1.000000          1                    1.000
      608         1.000000          1                    1.000
      609         1.000000          1                    1.000
      610         1.000000          1                    1.000
      611         1.000000          1                    1.000
      612         1.000000          1                    1.000
      613         1.000000          1                    1.000
      614         1.000000          1                    1.000
      615         1.000000          1                    1.000
      616         1.000000          1                    1.000
      617         1.000000          1                    1.000
      618         1.000000          1                    1.000
      619         1.000000          1                    1.000
      620         1.000000          1                    1.000
      621         1.000000          1                    1.000
      622         1.000000          1                    1.000
      623         1.000000          1                    1.000
      624         1.000000          1                    1.000
      625         1.000000          1                    1.000
      626         1.000000          1                    1.000
      627         1.000000          1                    1.000
      628         1.000000          1                    1.000
      629         1.000000          1                    1.000
      630         1.000000          1                    1.000
      631         1.000000          1                    1.000
      632         1.000000          1                    1.000
      633         1.000000          1                    1.000
      634         1.000000          1                    1.000
      635         1.000000          1                    1.000
      636         1.000000          1                    1.000
      637         1.000000          1                    1.000
      638         1.000000          1                    1.000
      639         1.000000          1                    1.000
      640         1.000000          1                    1.000
      641         1.000000          1                    1.000
      642         1.000000          1                    1.000
      643         1.000000          1                    1.000
      644         1.000000          1                    1.000
      645         1.000000          1                    1.000
      646         1.000000          1                    1.000
      647         1.000000          1                    1.000
      648         1.000000          1                    1.000
      649         1.000000          1                    1.000
      650         1.000000          1                    1.000
      651         1.000000          1                    1.000
      652         1.000000          1                    1.000
      653         1.000000          1                    1.000
      654         1.000000          1                    1.000
      655         1.000000          1                    1.000
      656         1.000000          1                    1.000
      657         1.000000          1                    1.000
      658         1.000000          1                    1.000
      659         1.000000          1                    1.000
      660         1.000000          1                    1.000
      661         1.000000          1                    1.000
      662         1.000000          1                    1.000
      663         1.000000          1                    1.000
      664         1.000000          1                    1.000
      665         1.000000          1                    1.000
      666         1.000000          1                    1.000
      667         1.000000          1                    1.000
      668         1.000000          1                    1.000
      669         1.000000          1                    1.000
      670         1.000000          1                    1.000
      671         1.000000          1                    1.000
      672         1.000000          1                    1.000
      673         1.000000          1                    1.000
      674         1.000000          1                    1.000
      675         1.000000          1                    1.000
      676         1.000000          1                    1.000
      677         1.000000          1                    1.000
      678         1.000000          1                    1.000
      679         1.000000          1                    1.000
      680         1.000000          1                    1.000
      681         1.000000          1                    1.000
      682         1.000000          1                    1.000
      683         1.000000          1                    1.000
      684         1.000000          1                    1.000
      685         1.000000          1                    1.000
      686         1.000000          1                    1.000
      687         1.000000          1                    1.000
      688         1.000000          1                    1.000
      689         1.000000          1                    1.000
      690         1.000000          1                    1.000
      691         1.000000          1                    1.000
      692         1.000000          1                    1.000
      693         1.000000          1                    1.000
      694         1.000000          1                    1.000
      695         1.000000          1                    1.000
      696         1.000000          1                    1.000
      697         1.000000          1                    1.000
      698         1.000000          1                    1.000
      699         1.000000          1                    1.000
      700         1.000000          1                    1.000
      701         1.000000          1                    1.000
      702         1.000000          1                    1.000
      703         1.000000          1                    1.000
      704         1.000000          1                    1.000
      705         1.000000          1                    1.000
      706         1.000000          1                    1.000
      707         1.000000          1                    1.000
      708         1.000000          1                    1.000
      709         1.000000          1                    1.000
      710         1.000000          1                    1.000
      711         1.000000          1                    1.000
      712         1.000000          1                    1.000
      713         1.000000          1                    1.000
      714         1.000000          1                    1.000
      715         1.000000          1                    1.000
      716         1.000000          1                    1.000
      717         1.000000          1                    1.000
      718         1.000000          1                    1.000
      719         1.000000          1                    1.000
      720         1.000000          1                    1.000
      721         1.000000          1                    1.000
      722         1.000000          1                    1.000
      723         1.000000          1                    1.000
      724         1.000000          1                    1.000
      725         1.000000          1                    1.000
      726         1.000000          1                    1.000
      727         1.000000          1                    1.000
      728         1.000000          1                    1.000
      729         1.000000          1                    1.000
      730         1.000000          1                    1.000
      731         1.000000          1                    1.000
      732         1.000000          1                    1.000
 END OF TDIS PERIODDATA
 END OF SIMULATION TIMING

 READING SIMULATION MODELS
    GWF6 model FREYBERG6 will be created as model 1
 END OF SIMULATION MODELS

 READING SIMULATION EXCHANGES
 END OF SIMULATION EXCHANGES

 READING SOLUTIONGROUP

 Creating solution: SLN_1           

 OPENED freyberg6.ims
 FILE TYPE:IMS   UNIT 1015   STATUS:OLD                 
 FORMAT:FORMATTED              ACCESS:SEQUENTIAL          
 ACTION:READ                

 END OF SIMULATION SOLUTIONGROUP

PROCESSING MODEL CONNECTIONS

 IMS -- ITERATIVE MODEL SOLUTION PACKAGE, VERSION 6, 4/28/2017
         INPUT READ FROM UNIT 1015
 # File generated by Flopy version 3.3.6 on 05/06/2022 at 17:25:10.

 PROCESSING IMS OPTIONS
 SIMPLE OPTION:
 DEFAULT SOLVER INPUT VALUES FOR FAST SOLUTIONS
 END OF IMS OPTIONS

 PROCESSING IMS NONLINEAR
 END OF IMS NONLINEAR DATA
 **UNDER-RELAXATION WILL BE USED***
 
 ***IMS LINEAR SOLVER WILL BE USED***

 IMSLINEAR -- UNSTRUCTURED LINEAR SOLUTION PACKAGE, VERSION 8, 04/28/2017

 PROCESSING LINEAR DATA
 END OF LINEAR DATA
 
 An asymmetric matrix will be solved

 OUTER ITERATION CONVERGENCE CRITERION    (DVCLOSE) =    0.100000E-04
 MAXIMUM NUMBER OF OUTER ITERATIONS        (MXITER) = 100
 SOLVER PRINTOUT INDEX                     (IPRIMS) = 1
 NONLINEAR ITERATION METHOD            (NONLINMETH) = 3
 LINEAR SOLUTION METHOD                   (LINMETH) = 1
 UNDER-RELAXATION WEIGHT REDUCTION FACTOR   (THETA) =    0.850000E+00
 UNDER-RELAXATION WEIGHT INCREASE INCREMENT (KAPPA) =    0.100000E-04
 UNDER-RELAXATION PREVIOUS HISTORY FACTOR   (GAMMA) =    0.000000E+00
 UNDER-RELAXATION MOMENTUM TERM         (AMOMENTUM) =    0.100000E+00
 MAXIMUM NUMBER OF BACKTRACKS            (NUMTRACK) = 50
 BACKTRACKING TOLERANCE FACTOR               (BTOL) =    0.110000E+01
 BACKTRACKING REDUCTION FACTOR             (BREDUC) =    0.700000E+00
 BACKTRACKING RESIDUAL LIMIT              (RES_LIM) =    0.100000E+03

       SOLUTION BY THE BICONJUGATE-GRADIENT STABILIZED METHOD
 ------------------------------------------------------------------
 MAXIMUM OF 100 CALLS OF SOLUTION ROUTINE
 MAXIMUM OF 50 INTERNAL ITERATIONS PER CALL TO SOLUTION ROUTINE
 LINEAR ACCELERATION METHOD            = BCGS      
 MATRIX PRECONDITIONING TYPE           = INCOMPLETE LUT      
 MATRIX SCALING APPROACH               = NO SCALING          
 MATRIX REORDERING APPROACH            = RCM ORDERING             
 NUMBER OF ORTHOGONALIZATIONS          = 2
 HEAD CHANGE CRITERION FOR CLOSURE     =    0.10000E-05
 RESIDUAL CHANGE CRITERION FOR CLOSURE =    0.10000E+00
 RESIDUAL CONVERGENCE OPTION           = 0
 RESIDUAL CONVERGENCE NORM             = INFINITY NORM   
 RELAXATION FACTOR                     =    0.00000E+00
 NUMBER OF LEVELS                      =              1
 DROP TOLERANCE                        =    0.10000E-02


 
    Solving:  Stress period:     1    Time step:     1
 
1
                            STRESS PERIOD NO. 1, LENGTH =   3652.500    
                            -----------------------------------------------
                            NUMBER OF TIME STEPS = 1
                            MULTIPLIER FOR DELT =     1.000
                            INITIAL TIME STEP SIZE =   3652.500    

 SLN_1 OUTER ITERATION SUMMARY
 ----------------------------------------------------------------------------------------------------------------------------------------------------------------
                                OUTER      INNER  BACKTRACK  BACKTRACK        INCOMING        OUTGOING                    STEP   MAXIMUM CHANGE MODEL-(CELLID) OR
 OUTER ITERATION STEP       ITERATION  ITERATION       FLAG ITERATIONS        RESIDUAL        RESIDUAL  MAXIMUM CHANGE SUCCESS             MODEL-PACKAGE-(NUMBER)
 ----------------------------------------------------------------------------------------------------------------------------------------------------------------
 Backtracking                       1                     0          0       251559.71       251559.71                       *                                   
 Model                              1         50                                                             1049.5590                           1_GWF-(1,119,47)
 Backtracking                       2                     0          0       8089.4751       8089.4751                       *                                   
 Model                              2         50                                                            -15.806269                           1_GWF-(1,119,47)
 Backtracking                       3                     0          0       3545.2748       3545.2748                       *                                   
 Model                              3         50                                                            -24.571808                              1_GWF-(3,2,1)
 Backtracking                       4                     1         13       51824.583       3837.7326                                                           
 Model                              4         50                                                            -5.9606225                              1_GWF-(2,5,1)
 Backtracking                       5                     1          8       13097.927       4197.9187                                                           
 Model                              5         50                                                            -2.3281001                           1_GWF-(1,119,47)
 Backtracking                       6                     0          0       3723.5719       3723.5719                       *                                   
 Model                              6         50                                                           -0.18913826                            1_GWF-(1,70,16)
 Backtracking                       7                     0          0       307.94770       307.94770                       *                                   
 Model                              7         50                                                            0.11941260                             1_GWF-(1,1,10)
 Backtracking                       8                     1          1       355.29068       287.41248                                                           
 Model                              8         50                                                       -5.03015462E-02                           1_GWF-(3,100,13)
 Backtracking                       9                     0          0       240.81899       240.81899                       *                                   
 Model                              9         50                                                       -2.37118164E-02                           1_GWF-(3,101,12)
 Backtracking                      10                     0          0       105.30202       105.30202                       *                                   
 Model                             10         50                                                       -1.12883369E-02                           1_GWF-(1,101,12)
 Backtracking                      11                     0          0       50.595545       50.595545                       *                                   
 Model                             11         50                                                       -5.65807046E-03                           1_GWF-(3,105,21)
 Backtracking                      12                     0          0       24.363696       24.363696                       *                                   
 Model                             12         50                                                       -2.95623562E-03                           1_GWF-(3,105,21)
 Backtracking                      13                     0          0       12.288485       12.288485                       *                                   
 Model                             13         50                                                       -1.65463871E-03                           1_GWF-(3,105,21)
 Backtracking                      14                     0          0       7.1279014       7.1279014                       *                                   
 Model                             14         41                                                       -7.46891374E-04                           1_GWF-(3,105,21)
 Backtracking                      15                     0          0       3.2055449       3.2055449                       *                                   
 Model                             15         47                                                       -6.00503561E-04                           1_GWF-(3,105,21)
 Backtracking                      16                     0          0       3.0382762       3.0382762                       *                                   
 Model                             16         25                                                       -2.24350133E-04                             1_GWF-(2,40,8)
 Backtracking                      17                     0          0      0.91295875      0.91295875                       *                                   
 Model                             17         14                                                       -8.35005329E-05                             1_GWF-(3,40,1)
 Backtracking                      18                     0          0      0.30723463      0.30723463                       *                                   
 Model                             18         20                                                       -2.36646445E-04                             1_GWF-(2,40,5)
 Backtracking                      19                     0          1      0.65889767      0.52314668                                                           
 Model                             19         14                                                       -5.28712334E-05                             1_GWF-(3,40,7)
 Backtracking                      20                     0          0      0.17742301      0.17742301                       *                                   
 Model                             20         12                                                       -5.48004410E-05                             1_GWF-(2,40,6)
 Backtracking                      21                     0          0      0.17693818      0.17693818                       *                                   
 Model                             21         35                                                       -4.99270371E-04                             1_GWF-(3,40,1)
 Backtracking                      22                     0          1       1.6813022       1.2279950                                                           
 Model                             22         16                                                       -7.60849509E-05                            1_GWF-(3,39,12)
 Backtracking                      23                     0          0      0.30994504      0.30994504                       *                                   
 Model                             23         12                                                       -3.09566701E-05                             1_GWF-(2,40,6)
 Backtracking                      24                     0          0      0.10606382      0.10606382                       *                                   
 Model                             24         12                                                       -2.30768672E-05                             1_GWF-(2,40,1)
 Backtracking                      25                     0          0  5.67970360E-02  5.67970360E-02                       *                                   
 Model                             25         36                                                       -2.04623893E-04                             1_GWF-(2,40,8)
 Backtracking                      26                     0          1      0.50775923      0.36671654                                                           
 Model                             26         12                                                       -2.38319416E-05                            1_GWF-(3,39,11)
 Backtracking                      27                     0          0      0.12575338      0.12575338                       *                                   
 Model                             27         12                                                       -1.42468705E-05                             1_GWF-(1,43,1)
 Backtracking                      28                     0          0  4.85114913E-02  4.85114913E-02                       *                                   
 Model                             28          4                                                       -3.54488936E-06       *                    1_GWF-(1,99,28)
 ----------------------------------------------------------------------------------------------------------------------------------------------------------------


 28 CALLS TO NUMERICAL SOLUTION IN TIME STEP 1 STRESS PERIOD 1
 962 TOTAL ITERATIONS
 
    Solving:  Stress period:     2    Time step:     1
 
1
                            STRESS PERIOD NO. 2, LENGTH =   1.000000    
                            -----------------------------------------------
                            NUMBER OF TIME STEPS = 1
                            MULTIPLIER FOR DELT =     1.000
                            INITIAL TIME STEP SIZE =   1.000000    

 SLN_1 OUTER ITERATION SUMMARY
 ----------------------------------------------------------------------------------------------------------------------------------------------------------------
                                OUTER      INNER  BACKTRACK  BACKTRACK        INCOMING        OUTGOING                    STEP   MAXIMUM CHANGE MODEL-(CELLID) OR
 OUTER ITERATION STEP       ITERATION  ITERATION       FLAG ITERATIONS        RESIDUAL        RESIDUAL  MAXIMUM CHANGE SUCCESS             MODEL-PACKAGE-(NUMBER)
 ----------------------------------------------------------------------------------------------------------------------------------------------------------------
 Backtracking                       1                     0          0       67.167258       67.167258                       *                                   
 Model                              1         41                                                        4.35525606E-02                           1_GWF-(3,104,38)
 Backtracking                       2                     0          0      0.48383114      0.48383114                       *                                   
 Model                              2         18                                                        1.93757744E-03                           1_GWF-(1,118,34)
 Backtracking                       3                     0          0  7.17803094E-02  7.17803094E-02                       *                                   
 Model                              3         10                                                        2.89762049E-04                           1_GWF-(1,118,34)
 Backtracking                       4                     0          0  1.23226419E-02  1.23226419E-02                       *                                   
 Model                              4          8                                                        4.48814186E-05                           1_GWF-(1,118,34)
 Backtracking                       5                     0          0  7.61285084E-03  7.61285084E-03                       *                                   
 Model                              5          2                                                        6.17697326E-06       *                   1_GWF-(1,118,34)
 ----------------------------------------------------------------------------------------------------------------------------------------------------------------


 5 CALLS TO NUMERICAL SOLUTION IN TIME STEP 1 STRESS PERIOD 2
 79 TOTAL ITERATIONS
 
    Solving:  Stress period:     3    Time step:     1
 
1
                            STRESS PERIOD NO. 3, LENGTH =   1.000000    
                            -----------------------------------------------
                            NUMBER OF TIME STEPS = 1
                            MULTIPLIER FOR DELT =     1.000
                            INITIAL TIME STEP SIZE =   1.000000    

 SLN_1 OUTER ITERATION SUMMARY
 ----------------------------------------------------------------------------------------------------------------------------------------------------------------
                                OUTER      INNER  BACKTRACK  BACKTRACK        INCOMING        OUTGOING                    STEP   MAXIMUM CHANGE MODEL-(CELLID) OR
 OUTER ITERATION STEP       ITERATION  ITERATION       FLAG ITERATIONS        RESIDUAL        RESIDUAL  MAXIMUM CHANGE SUCCESS             MODEL-PACKAGE-(NUMBER)
 ----------------------------------------------------------------------------------------------------------------------------------------------------------------
 Backtracking                       1                     0          0       93.629980       93.629980                       *                                   
 Model                              1         45                                                        8.63946674E-02                            1_GWF-(3,62,44)
 Backtracking                       2                     0          0      0.43107031      0.43107031                       *                                   
 Model                              2         16                                                        1.06241600E-03                           1_GWF-(1,119,32)
 Backtracking                       3                     0          0  4.31419443E-02  4.31419443E-02                       *                                   
 Model                              3          6                                                        1.55543511E-04                           1_GWF-(1,119,32)
 Backtracking                       4                     0          0  7.93049027E-03  7.93049027E-03                       *                                   
 Model                              4          3                                                        2.35112674E-05                           1_GWF-(1,119,32)
 Backtracking                       5                     0          0  5.58786365E-03  5.58786365E-03                       *                                   
 Model                              5          2                                                        4.31334892E-06       *                   1_GWF-(1,119,32)
 ----------------------------------------------------------------------------------------------------------------------------------------------------------------


 5 CALLS TO NUMERICAL SOLUTION IN TIME STEP 1 STRESS PERIOD 3
 72 TOTAL ITERATIONS
 
    Solving:  Stress period:     4    Time step:     1
 
1
                            STRESS PERIOD NO. 4, LENGTH =   1.000000    
                            -----------------------------------------------
                            NUMBER OF TIME STEPS = 1
                            MULTIPLIER FOR DELT =     1.000
                            INITIAL TIME STEP SIZE =   1.000000    

 SLN_1 OUTER ITERATION SUMMARY
 ----------------------------------------------------------------------------------------------------------------------------------------------------------------
                                OUTER      INNER  BACKTRACK  BACKTRACK        INCOMING        OUTGOING                    STEP   MAXIMUM CHANGE MODEL-(CELLID) OR
 OUTER ITERATION STEP       ITERATION  ITERATION       FLAG ITERATIONS        RESIDUAL        RESIDUAL  MAXIMUM CHANGE SUCCESS             MODEL-PACKAGE-(NUMBER)
 ----------------------------------------------------------------------------------------------------------------------------------------------------------------
 Backtracking                       1                     0          0       30.581221       30.581221                       *                                   
 Model                              1         37                                                        1.87259254E-02                            1_GWF-(1,62,44)
 Backtracking                       2                     0          0      0.12735078      0.12735078                       *                                   
 Model                              2         11                                                       -7.41557289E-05                           1_GWF-(1,116,47)
 Backtracking                       3                     0          0  2.55961691E-02  2.55961691E-02                       *                                   
 Model                              3          5                                                       -6.23602075E-06       *                   1_GWF-(1,120,47)
 ----------------------------------------------------------------------------------------------------------------------------------------------------------------


 3 CALLS TO NUMERICAL SOLUTION IN TIME STEP 1 STRESS PERIOD 4
 53 TOTAL ITERATIONS
 
    Solving:  Stress period:     5    Time step:     1
 
1
                            STRESS PERIOD NO. 5, LENGTH =   1.000000    
                            -----------------------------------------------
                            NUMBER OF TIME STEPS = 1
                            MULTIPLIER FOR DELT =     1.000
                            INITIAL TIME STEP SIZE =   1.000000    

 SLN_1 OUTER ITERATION SUMMARY
 ----------------------------------------------------------------------------------------------------------------------------------------------------------------
                                OUTER      INNER  BACKTRACK  BACKTRACK        INCOMING        OUTGOING                    STEP   MAXIMUM CHANGE MODEL-(CELLID) OR
 OUTER ITERATION STEP       ITERATION  ITERATION       FLAG ITERATIONS        RESIDUAL        RESIDUAL  MAXIMUM CHANGE SUCCESS             MODEL-PACKAGE-(NUMBER)
 ----------------------------------------------------------------------------------------------------------------------------------------------------------------
 Backtracking                       1                     0          0       59.833420       59.833420                       *                                   
 Model                              1         38                                                       -3.86939596E-02                            1_GWF-(3,35,41)
 Backtracking                       2                     0          0  3.55486430E-02  3.55486430E-02                       *                                   
 Model                              2          9                                                        2.29590417E-05                            1_GWF-(1,34,47)
 Backtracking                       3                     0          0  8.75865663E-03  8.75865663E-03                       *                                   
 Model                              3          2                                                        3.25041334E-06       *                    1_GWF-(1,35,47)
 ----------------------------------------------------------------------------------------------------------------------------------------------------------------


 3 CALLS TO NUMERICAL SOLUTION IN TIME STEP 1 STRESS PERIOD 5
 49 TOTAL ITERATIONS
 
    Solving:  Stress period:     6    Time step:     1
 
1
                            STRESS PERIOD NO. 6, LENGTH =   1.000000    
                            -----------------------------------------------
                            NUMBER OF TIME STEPS = 1
                            MULTIPLIER FOR DELT =     1.000
                            INITIAL TIME STEP SIZE =   1.000000    

 SLN_1 OUTER ITERATION SUMMARY
 ----------------------------------------------------------------------------------------------------------------------------------------------------------------
                                OUTER      INNER  BACKTRACK  BACKTRACK        INCOMING        OUTGOING                    STEP   MAXIMUM CHANGE MODEL-(CELLID) OR
 OUTER ITERATION STEP       ITERATION  ITERATION       FLAG ITERATIONS        RESIDUAL        RESIDUAL  MAXIMUM CHANGE SUCCESS             MODEL-PACKAGE-(NUMBER)
 ----------------------------------------------------------------------------------------------------------------------------------------------------------------
 Backtracking                       1                     0          0       48.355400       48.355400                       *                                   
 Model                              1         42                                                        3.79133238E-02                            1_GWF-(3,62,44)
 Backtracking                       2                     0          0      0.11639889      0.11639889                       *                                   
 Model                              2         11                                                       -7.40474594E-05                           1_GWF-(1,120,47)
 Backtracking                       3                     0          0  1.08906634E-02  1.08906634E-02                       *                                   
 Model                              3          3                                                       -4.91378061E-06       *                   1_GWF-(1,120,47)
 ----------------------------------------------------------------------------------------------------------------------------------------------------------------


 3 CALLS TO NUMERICAL SOLUTION IN TIME STEP 1 STRESS PERIOD 6
 56 TOTAL ITERATIONS
 
    Solving:  Stress period:     7    Time step:     1
 
1
                            STRESS PERIOD NO. 7, LENGTH =   1.000000    
                            -----------------------------------------------
                            NUMBER OF TIME STEPS = 1
                            MULTIPLIER FOR DELT =     1.000
                            INITIAL TIME STEP SIZE =   1.000000    

 SLN_1 OUTER ITERATION SUMMARY
 ----------------------------------------------------------------------------------------------------------------------------------------------------------------
                                OUTER      INNER  BACKTRACK  BACKTRACK        INCOMING        OUTGOING                    STEP   MAXIMUM CHANGE MODEL-(CELLID) OR
 OUTER ITERATION STEP       ITERATION  ITERATION       FLAG ITERATIONS        RESIDUAL        RESIDUAL  MAXIMUM CHANGE SUCCESS             MODEL-PACKAGE-(NUMBER)
 ----------------------------------------------------------------------------------------------------------------------------------------------------------------
 Backtracking                       1                     0          0       71.031587       71.031587                       *                                   
 Model                              1         44                                                       -3.59313365E-02                            1_GWF-(3,29,50)
 Backtracking                       2                     0          0      0.16883966      0.16883966                       *                                   
 Model                              2         10                                                       -7.24346635E-05                            1_GWF-(1,50,47)
 Backtracking                       3                     0          0  4.22587879E-02  4.22587879E-02                       *                                   
 Model                              3          6                                                       -2.19805825E-05                           1_GWF-(1,116,47)
 Backtracking                       4                     0          0  1.15158443E-02  1.15158443E-02                       *                                   
 Model                              4          4                                                       -5.83480573E-06       *                   1_GWF-(1,116,47)
 ----------------------------------------------------------------------------------------------------------------------------------------------------------------


 4 CALLS TO NUMERICAL SOLUTION IN TIME STEP 1 STRESS PERIOD 7
 64 TOTAL ITERATIONS
 
    Solving:  Stress period:     8    Time step:     1
 
1
                            STRESS PERIOD NO. 8, LENGTH =   1.000000    
                            -----------------------------------------------
                            NUMBER OF TIME STEPS = 1
                            MULTIPLIER FOR DELT =     1.000
                            INITIAL TIME STEP SIZE =   1.000000    

 SLN_1 OUTER ITERATION SUMMARY
 ----------------------------------------------------------------------------------------------------------------------------------------------------------------
                                OUTER      INNER  BACKTRACK  BACKTRACK        INCOMING        OUTGOING                    STEP   MAXIMUM CHANGE MODEL-(CELLID) OR
 OUTER ITERATION STEP       ITERATION  ITERATION       FLAG ITERATIONS        RESIDUAL        RESIDUAL  MAXIMUM CHANGE SUCCESS             MODEL-PACKAGE-(NUMBER)
 ----------------------------------------------------------------------------------------------------------------------------------------------------------------
 Backtracking                       1                     0          0       71.856431       71.856431                       *                                   
[...]
 Backtracking                       2                     0          0      0.24443343      0.24443343                       *                                   
 Model                              2          9                                                        1.53372934E-04                           1_GWF-(1,120,47)
 Backtracking                       3                     0          0  4.46819085E-02  4.46819085E-02                       *                                   
 Model                              3          5                                                       -2.03521362E-05                            1_GWF-(1,77,47)
 Backtracking                       4                     0          0  1.44578408E-02  1.44578408E-02                       *                                   
 Model                              4          3                                                       -4.73575300E-06       *                    1_GWF-(1,80,47)
 ----------------------------------------------------------------------------------------------------------------------------------------------------------------


 4 CALLS TO NUMERICAL SOLUTION IN TIME STEP 1 STRESS PERIOD 725
 57 TOTAL ITERATIONS
 
    Solving:  Stress period:   726    Time step:     1
 
1
                            STRESS PERIOD NO. 726, LENGTH =   1.000000    
                            -----------------------------------------------
                            NUMBER OF TIME STEPS = 1
                            MULTIPLIER FOR DELT =     1.000
                            INITIAL TIME STEP SIZE =   1.000000    

 SLN_1 OUTER ITERATION SUMMARY
 ----------------------------------------------------------------------------------------------------------------------------------------------------------------
                                OUTER      INNER  BACKTRACK  BACKTRACK        INCOMING        OUTGOING                    STEP   MAXIMUM CHANGE MODEL-(CELLID) OR
 OUTER ITERATION STEP       ITERATION  ITERATION       FLAG ITERATIONS        RESIDUAL        RESIDUAL  MAXIMUM CHANGE SUCCESS             MODEL-PACKAGE-(NUMBER)
 ----------------------------------------------------------------------------------------------------------------------------------------------------------------
 Backtracking                       1                     0          0       103.52762       103.52762                       *                                   
 Model                              1         38                                                        5.23495424E-02                            1_GWF-(3,35,41)
 Backtracking                       2                     0          0      0.21370622      0.21370622                       *                                   
 Model                              2         11                                                       -1.25722552E-04                           1_GWF-(1,120,47)
 Backtracking                       3                     0          0  2.77649595E-02  2.77649595E-02                       *                                   
 Model                              3          9                                                       -1.75769057E-05                           1_GWF-(1,120,47)
 Backtracking                       4                     0          0  7.16339481E-03  7.16339481E-03                       *                                   
 Model                              4          2                                                       -1.98827081E-06       *                   1_GWF-(1,120,47)
 ----------------------------------------------------------------------------------------------------------------------------------------------------------------


 4 CALLS TO NUMERICAL SOLUTION IN TIME STEP 1 STRESS PERIOD 726
 60 TOTAL ITERATIONS
 
    Solving:  Stress period:   727    Time step:     1
 
1
                            STRESS PERIOD NO. 727, LENGTH =   1.000000    
                            -----------------------------------------------
                            NUMBER OF TIME STEPS = 1
                            MULTIPLIER FOR DELT =     1.000
                            INITIAL TIME STEP SIZE =   1.000000    

 SLN_1 OUTER ITERATION SUMMARY
 ----------------------------------------------------------------------------------------------------------------------------------------------------------------
                                OUTER      INNER  BACKTRACK  BACKTRACK        INCOMING        OUTGOING                    STEP   MAXIMUM CHANGE MODEL-(CELLID) OR
 OUTER ITERATION STEP       ITERATION  ITERATION       FLAG ITERATIONS        RESIDUAL        RESIDUAL  MAXIMUM CHANGE SUCCESS             MODEL-PACKAGE-(NUMBER)
 ----------------------------------------------------------------------------------------------------------------------------------------------------------------
 Backtracking                       1                     0          0       29.503861       29.503861                       *                                   
 Model                              1         37                                                        1.53922857E-02                            1_GWF-(3,29,50)
 Backtracking                       2                     0          0      0.10785943      0.10785943                       *                                   
 Model                              2          9                                                       -4.83667701E-05                           1_GWF-(1,116,47)
 Backtracking                       3                     0          0  1.70608631E-02  1.70608631E-02                       *                                   
 Model                              3          5                                                       -1.11145234E-05                           1_GWF-(2,116,47)
 Backtracking                       4                     0          0  6.64451844E-03  6.64451844E-03                       *                                   
 Model                              4          2                                                       -1.91819500E-06       *                   1_GWF-(2,116,47)
 ----------------------------------------------------------------------------------------------------------------------------------------------------------------


 4 CALLS TO NUMERICAL SOLUTION IN TIME STEP 1 STRESS PERIOD 727
 53 TOTAL ITERATIONS
 
    Solving:  Stress period:   728    Time step:     1
 
1
                            STRESS PERIOD NO. 728, LENGTH =   1.000000    
                            -----------------------------------------------
                            NUMBER OF TIME STEPS = 1
                            MULTIPLIER FOR DELT =     1.000
                            INITIAL TIME STEP SIZE =   1.000000    

 SLN_1 OUTER ITERATION SUMMARY
 ----------------------------------------------------------------------------------------------------------------------------------------------------------------
                                OUTER      INNER  BACKTRACK  BACKTRACK        INCOMING        OUTGOING                    STEP   MAXIMUM CHANGE MODEL-(CELLID) OR
 OUTER ITERATION STEP       ITERATION  ITERATION       FLAG ITERATIONS        RESIDUAL        RESIDUAL  MAXIMUM CHANGE SUCCESS             MODEL-PACKAGE-(NUMBER)
 ----------------------------------------------------------------------------------------------------------------------------------------------------------------
 Backtracking                       1                     0          0       30.946798       30.946798                       *                                   
 Model                              1         50                                                        1.68008355E-02                            1_GWF-(3,35,41)
 Backtracking                       2                     0          0      0.34488712      0.34488712                       *                                   
 Model                              2         11                                                        2.37907677E-04                           1_GWF-(1,120,47)
 Backtracking                       3                     0          0  3.66136027E-02  3.66136027E-02                       *                                   
 Model                              3          6                                                        2.68077665E-05                           1_GWF-(1,120,47)
 Backtracking                       4                     0          0  8.47497484E-03  8.47497484E-03                       *                                   
 Model                              4          5                                                       -8.65207216E-06       *                   1_GWF-(3,119,48)
 ----------------------------------------------------------------------------------------------------------------------------------------------------------------


 4 CALLS TO NUMERICAL SOLUTION IN TIME STEP 1 STRESS PERIOD 728
 72 TOTAL ITERATIONS
 
    Solving:  Stress period:   729    Time step:     1
 
1
                            STRESS PERIOD NO. 729, LENGTH =   1.000000    
                            -----------------------------------------------
                            NUMBER OF TIME STEPS = 1
                            MULTIPLIER FOR DELT =     1.000
                            INITIAL TIME STEP SIZE =   1.000000    

 SLN_1 OUTER ITERATION SUMMARY
 ----------------------------------------------------------------------------------------------------------------------------------------------------------------
                                OUTER      INNER  BACKTRACK  BACKTRACK        INCOMING        OUTGOING                    STEP   MAXIMUM CHANGE MODEL-(CELLID) OR
 OUTER ITERATION STEP       ITERATION  ITERATION       FLAG ITERATIONS        RESIDUAL        RESIDUAL  MAXIMUM CHANGE SUCCESS             MODEL-PACKAGE-(NUMBER)
 ----------------------------------------------------------------------------------------------------------------------------------------------------------------
 Backtracking                       1                     0          0       67.643367       67.643367                       *                                   
 Model                              1         40                                                        3.56622884E-02                            1_GWF-(3,29,50)
 Backtracking                       2                     0          0  9.60367067E-02  9.60367067E-02                       *                                   
 Model                              2          9                                                       -6.24391900E-05                           1_GWF-(1,120,47)
 Backtracking                       3                     0          0  1.34161861E-02  1.34161861E-02                       *                                   
 Model                              3          3                                                        6.26740902E-06       *                    1_GWF-(1,41,47)
 ----------------------------------------------------------------------------------------------------------------------------------------------------------------


 3 CALLS TO NUMERICAL SOLUTION IN TIME STEP 1 STRESS PERIOD 729
 52 TOTAL ITERATIONS
 
    Solving:  Stress period:   730    Time step:     1
 
1
                            STRESS PERIOD NO. 730, LENGTH =   1.000000    
                            -----------------------------------------------
                            NUMBER OF TIME STEPS = 1
                            MULTIPLIER FOR DELT =     1.000
                            INITIAL TIME STEP SIZE =   1.000000    

 SLN_1 OUTER ITERATION SUMMARY
 ----------------------------------------------------------------------------------------------------------------------------------------------------------------
                                OUTER      INNER  BACKTRACK  BACKTRACK        INCOMING        OUTGOING                    STEP   MAXIMUM CHANGE MODEL-(CELLID) OR
 OUTER ITERATION STEP       ITERATION  ITERATION       FLAG ITERATIONS        RESIDUAL        RESIDUAL  MAXIMUM CHANGE SUCCESS             MODEL-PACKAGE-(NUMBER)
 ----------------------------------------------------------------------------------------------------------------------------------------------------------------
 Backtracking                       1                     0          0       20.317553       20.317553                       *                                   
 Model                              1         44                                                       -1.36417702E-02                            1_GWF-(3,62,44)
 Backtracking                       2                     0          0      0.16620025      0.16620025                       *                                   
 Model                              2          9                                                        1.00828108E-04                           1_GWF-(1,120,47)
 Backtracking                       3                     0          0  2.68399725E-02  2.68399725E-02                       *                                   
 Model                              3          5                                                        1.42126429E-05                           1_GWF-(1,120,47)
 Backtracking                       4                     0          0  8.11148476E-03  8.11148476E-03                       *                                   
 Model                              4          2                                                        2.07960565E-06       *                    1_GWF-(1,74,47)
 ----------------------------------------------------------------------------------------------------------------------------------------------------------------


 4 CALLS TO NUMERICAL SOLUTION IN TIME STEP 1 STRESS PERIOD 730
 60 TOTAL ITERATIONS
 
    Solving:  Stress period:   731    Time step:     1
 
1
                            STRESS PERIOD NO. 731, LENGTH =   1.000000    
                            -----------------------------------------------
                            NUMBER OF TIME STEPS = 1
                            MULTIPLIER FOR DELT =     1.000
                            INITIAL TIME STEP SIZE =   1.000000    

 SLN_1 OUTER ITERATION SUMMARY
 ----------------------------------------------------------------------------------------------------------------------------------------------------------------
                                OUTER      INNER  BACKTRACK  BACKTRACK        INCOMING        OUTGOING                    STEP   MAXIMUM CHANGE MODEL-(CELLID) OR
 OUTER ITERATION STEP       ITERATION  ITERATION       FLAG ITERATIONS        RESIDUAL        RESIDUAL  MAXIMUM CHANGE SUCCESS             MODEL-PACKAGE-(NUMBER)
 ----------------------------------------------------------------------------------------------------------------------------------------------------------------
 Backtracking                       1                     0          0       120.13136       120.13136                       *                                   
 Model                              1         40                                                       -6.75686056E-02                            1_GWF-(3,29,50)
 Backtracking                       2                     0          0      0.19858628      0.19858628                       *                                   
 Model                              2         11                                                        1.28452387E-04                           1_GWF-(1,120,47)
 Backtracking                       3                     0          0  2.40950600E-02  2.40950600E-02                       *                                   
 Model                              3          3                                                       -1.16266433E-05                            1_GWF-(1,37,47)
 Backtracking                       4                     0          0  8.73058966E-03  8.73058966E-03                       *                                   
 Model                              4          2                                                       -2.30061594E-06       *                    1_GWF-(1,77,47)
 ----------------------------------------------------------------------------------------------------------------------------------------------------------------


 4 CALLS TO NUMERICAL SOLUTION IN TIME STEP 1 STRESS PERIOD 731
 56 TOTAL ITERATIONS
 
    Solving:  Stress period:   732    Time step:     1
 
1
                            STRESS PERIOD NO. 732, LENGTH =   1.000000    
                            -----------------------------------------------
                            NUMBER OF TIME STEPS = 1
                            MULTIPLIER FOR DELT =     1.000
                            INITIAL TIME STEP SIZE =   1.000000    

 SLN_1 OUTER ITERATION SUMMARY
 ----------------------------------------------------------------------------------------------------------------------------------------------------------------
                                OUTER      INNER  BACKTRACK  BACKTRACK        INCOMING        OUTGOING                    STEP   MAXIMUM CHANGE MODEL-(CELLID) OR
 OUTER ITERATION STEP       ITERATION  ITERATION       FLAG ITERATIONS        RESIDUAL        RESIDUAL  MAXIMUM CHANGE SUCCESS             MODEL-PACKAGE-(NUMBER)
 ----------------------------------------------------------------------------------------------------------------------------------------------------------------
 Backtracking                       1                     0          0       11.513365       11.513365                       *                                   
 Model                              1         32                                                       -1.33454870E-02                            1_GWF-(1,29,50)
 Backtracking                       2                     0          0      0.14481653      0.14481653                       *                                   
 Model                              2         13                                                        9.33669722E-05                           1_GWF-(1,120,47)
 Backtracking                       3                     0          0  1.46832706E-02  1.46832706E-02                       *                                   
 Model                              3          3                                                        6.60991758E-06       *                   1_GWF-(1,120,47)
 ----------------------------------------------------------------------------------------------------------------------------------------------------------------


 3 CALLS TO NUMERICAL SOLUTION IN TIME STEP 1 STRESS PERIOD 732
 48 TOTAL ITERATIONS


 Solution SLN_1 summary
 ----------------------------------------------------------------------
 Total formulate time:  8.156250000000000 seconds
 Total solution time:   28.56250000000000 seconds


 MEMORY MANAGER TOTAL STORAGE BY DATA TYPE, IN MEGABYTES
 -------------------------------
                    ALLOCATED   
 DATA TYPE           MEMORY     
 -------------------------------
 Character        1.21330000E-02
 Logical          4.40000000E-05
 Integer          5.6084880     
 Real             10.587568     
 -------------------------------
 Total            16.208233     
 -------------------------------


 
 Run end date and time (yyyy/mm/dd hh:mm:ss): 2022/05/06 18:13:59
 Elapsed run time: 49.661 Seconds

WARNING REPORT:

  1. NONLINEAR BLOCK VARIABLE 'OUTER_HCLOSE' IN FILE 'freyberg6.ims' WAS
     DEPRECATED IN VERSION 6.1.1. SETTING OUTER_DVCLOSE TO OUTER_HCLOSE VALUE.
  2. LINEAR BLOCK VARIABLE 'INNER_HCLOSE' IN FILE 'freyberg6.ims' WAS
     DEPRECATED IN VERSION 6.1.1. SETTING INNER_DVCLOSE TO INNER_HCLOSE VALUE.
 Normal termination of simulation.
