                                   MODFLOW 6
                U.S. GEOLOGICAL SURVEY MODULAR HYDROLOGIC MODEL
                          GROUNDWATER FLOW MODEL (GWF)
                            VERSION 6.2.2 07/30/2021

   MODFLOW 6 compiled Jul 31 2021 14:57:11 with IFORT compiler (ver. 20.21.2)

This software has been approved for release by the U.S. Geological 
Survey (USGS). Although the software has been subjected to rigorous 
review, the USGS reserves the right to update the software as needed 
pursuant to further analysis and review. No warranty, expressed or 
implied, is made by the USGS or the U.S. Government as to the 
functionality of the software and related material nor shall the 
fact of release constitute any such warranty. Furthermore, the 
software is released on condition that neither the USGS nor the U.S. 
Government shall be held liable for any damages resulting from its 
authorized or unauthorized use. Also refer to the USGS Water 
Resources Software User Rights Notice for complete use, copyright, 
and distribution information.


System command used to initiate simulation:
mf6.exe

MODFLOW was compiled using uniform precision.

Real Variables
  KIND: 8
  TINY (smallest non-zero value):    2.225074-308
  HUGE (largest value):    1.797693+308
  PRECISION: 15
  BIT SIZE: 64

Integer Variables
  KIND: 4
  HUGE (largest value): 2147483647
  BIT SIZE: 32

Long Integer Variables
  KIND: 8
  HUGE (largest value): 9223372036854775807
  BIT SIZE: 64

Logical Variables
  KIND: 4
  BIT SIZE: 32
 

 OPENED freyberg6.dis
 FILE TYPE:DIS6                   UNIT 1005   STATUS:OLD                 
 FORMAT:FORMATTED              ACCESS:SEQUENTIAL          
 ACTION:READ                


 OPENED freyberg6.ic
 FILE TYPE:IC6                    UNIT 1006   STATUS:OLD                 
 FORMAT:FORMATTED              ACCESS:SEQUENTIAL          
 ACTION:READ                


 OPENED freyberg6.npf
 FILE TYPE:NPF6                   UNIT 1007   STATUS:OLD                 
 FORMAT:FORMATTED              ACCESS:SEQUENTIAL          
 ACTION:READ                


 OPENED freyberg6.sto
 FILE TYPE:STO6                   UNIT 1008   STATUS:OLD                 
 FORMAT:FORMATTED              ACCESS:SEQUENTIAL          
 ACTION:READ                


 OPENED freyberg6.oc
 FILE TYPE:OC6                    UNIT 1009   STATUS:OLD                 
 FORMAT:FORMATTED              ACCESS:SEQUENTIAL          
 ACTION:READ                


 OPENED freyberg6.wel
 FILE TYPE:WEL6                   UNIT 1010   STATUS:OLD                 
 FORMAT:FORMATTED              ACCESS:SEQUENTIAL          
 ACTION:READ                


 OPENED freyberg6.rch
 FILE TYPE:RCH6                   UNIT 1011   STATUS:OLD                 
 FORMAT:FORMATTED              ACCESS:SEQUENTIAL          
 ACTION:READ                


 OPENED freyberg6.ghb
 FILE TYPE:GHB6                   UNIT 1012   STATUS:OLD                 
 FORMAT:FORMATTED              ACCESS:SEQUENTIAL          
 ACTION:READ                


 OPENED freyberg6.sfr
 FILE TYPE:SFR6                   UNIT 1013   STATUS:OLD                 
 FORMAT:FORMATTED              ACCESS:SEQUENTIAL          
 ACTION:READ                


 OPENED head.obs
 FILE TYPE:OBS6                   UNIT 1014   STATUS:OLD                 
 FORMAT:FORMATTED              ACCESS:SEQUENTIAL          
 ACTION:READ                

 NAMEFILE OPTIONS:
    NEWTON-RAPHSON method enabled for the model.

 DIS -- STRUCTURED GRID DISCRETIZATION PACKAGE, VERSION 2 : 3/27/2014 - INPUT READ FROM UNIT 1005


 # File generated by Flopy version 3.3.5 on 02/21/2022 at 14:50:11.
 PROCESSING DISCRETIZATION OPTIONS
    MODEL LENGTH UNIT IS METERS
 END OF DISCRETIZATION OPTIONS
 PROCESSING DISCRETIZATION DIMENSIONS
    NLAY =       3
    NROW =      40
    NCOL =      20
 END OF DISCRETIZATION DIMENSIONS
 PROCESSING GRIDDATA

 OPENED freyberg6.dis_delr.txt
 FILE TYPE:OPEN/CLOSE   UNIT 1016   STATUS:OLD                 
 FORMAT:FORMATTED              ACCESS:SEQUENTIAL          
 ACTION:READ                


 OPENED freyberg6.dis_delc.txt
 FILE TYPE:OPEN/CLOSE   UNIT 1017   STATUS:OLD                 
 FORMAT:FORMATTED              ACCESS:SEQUENTIAL          
 ACTION:READ                


 OPENED freyberg6.dis_top.txt
 FILE TYPE:OPEN/CLOSE   UNIT 1018   STATUS:OLD                 
 FORMAT:FORMATTED              ACCESS:SEQUENTIAL          
 ACTION:READ                


 OPENED freyberg6.dis_botm_layer1.txt
 FILE TYPE:OPEN/CLOSE   UNIT 1019   STATUS:OLD                 
 FORMAT:FORMATTED              ACCESS:SEQUENTIAL          
 ACTION:READ                


 OPENED freyberg6.dis_botm_layer2.txt
 FILE TYPE:OPEN/CLOSE   UNIT 1020   STATUS:OLD                 
 FORMAT:FORMATTED              ACCESS:SEQUENTIAL          
 ACTION:READ                


 OPENED freyberg6.dis_botm_layer3.txt
 FILE TYPE:OPEN/CLOSE   UNIT 1021   STATUS:OLD                 
 FORMAT:FORMATTED              ACCESS:SEQUENTIAL          
 ACTION:READ                


 OPENED freyberg6.dis_idomain_layer1.txt
 FILE TYPE:OPEN/CLOSE   UNIT 1022   STATUS:OLD                 
 FORMAT:FORMATTED              ACCESS:SEQUENTIAL          
 ACTION:READ                


 OPENED freyberg6.dis_idomain_layer2.txt
 FILE TYPE:OPEN/CLOSE   UNIT 1023   STATUS:OLD                 
 FORMAT:FORMATTED              ACCESS:SEQUENTIAL          
 ACTION:READ                


 OPENED freyberg6.dis_idomain_layer3.txt
 FILE TYPE:OPEN/CLOSE   UNIT 1024   STATUS:OLD                 
 FORMAT:FORMATTED              ACCESS:SEQUENTIAL          
 ACTION:READ                

 END PROCESSING GRIDDATA

 THE SPECIFIED IDOMAIN RESULTS IN A REDUCED NUMBER OF CELLS.
 NUMBER OF USER NODES: 2400
 NUMBER OF NODES IN SOLUTION: 2118



 NPF -- NODE PROPERTY FLOW PACKAGE, VERSION 1, 3/30/2015 INPUT READ FROM UNIT 1007


 # File generated by Flopy version 3.3.5 on 02/21/2022 at 14:50:11.
 PROCESSING NPF OPTIONS
    CELL-BY-CELL FLOW INFORMATION WILL BE SAVED TO BINARY FILE WHENEVER ICBCFL IS NOT ZERO.
 END OF NPF OPTIONS

 WEL   -- WEL PACKAGE, VERSION 8, 2/22/2014 INPUT READ FROM UNIT 1010
 # File generated by Flopy version 3.3.5 on 02/21/2022 at 14:50:11.

 PROCESSING WEL OPTIONS
    LISTS OF WEL CELLS WILL BE PRINTED.
    WEL FLOWS WILL BE PRINTED TO LISTING FILE.
    FLOWS WILL BE SAVED TO BUDGET FILE SPECIFIED IN OUTPUT CONTROL
 END OF WEL OPTIONS

 PROCESSING WEL DIMENSIONS
    MAXBOUND =       6
 END OF WEL DIMENSIONS

 GHB   -- GHB PACKAGE, VERSION 8, 2/22/2014 INPUT READ FROM UNIT 1012
 # File generated by Flopy version 3.3.5 on 02/21/2022 at 14:50:11.

 PROCESSING GHB OPTIONS
    LISTS OF GHB CELLS WILL BE PRINTED.
    GHB FLOWS WILL BE PRINTED TO LISTING FILE.
    FLOWS WILL BE SAVED TO BUDGET FILE SPECIFIED IN OUTPUT CONTROL
 END OF GHB OPTIONS

 PROCESSING GHB DIMENSIONS
    MAXBOUND =      30
 END OF GHB DIMENSIONS

 RCH   -- RCH PACKAGE, VERSION 8, 2/22/2014 INPUT READ FROM UNIT 1011
 # File generated by Flopy version 3.3.5 on 02/21/2022 at 14:50:11.

 PROCESSING RCH OPTIONS
    RECHARGE INPUT WILL BE READ AS ARRAY(S).
    FLOWS WILL BE SAVED TO BUDGET FILE SPECIFIED IN OUTPUT CONTROL
 END OF RCH OPTIONS

 SFR   -- SFR PACKAGE, VERSION 8, 2/22/2014 INPUT READ FROM UNIT 1013
 # File generated by Flopy version 3.3.5 on 02/21/2022 at 14:50:11.

 PROCESSING SFR OPTIONS
    SFR BOUNDARIES HAVE NAMES IN LAST COLUMN.
    LISTS OF SFR CELLS WILL BE PRINTED.
    FLOWS WILL BE SAVED TO BUDGET FILE SPECIFIED IN OUTPUT CONTROL

 OPENED sfr.obs
 FILE TYPE:OBS   UNIT 1025   STATUS:OLD                 
 FORMAT:FORMATTED              ACCESS:SEQUENTIAL          
 ACTION:READ                

    MAXIMUM DEPTH CHANGE VALUE (.1000000000000000E-03) SPECIFIED.
    UNIT CONVERSION VALUE (86400.00000000000) SPECIFIED.
 END OF SFR OPTIONS

 PROCESSING SFR DIMENSIONS
    NREACHES = 40
 END OF SFR DIMENSIONS

 OPENED freyberg6.sfr_packagedata.txt
 FILE TYPE:OPEN/CLOSE   UNIT 1026   STATUS:OLD                 
 FORMAT:FORMATTED              ACCESS:SEQUENTIAL          
 ACTION:READ                


 PROCESSING SFR PACKAGEDATA
 END OF SFR PACKAGEDATA

 OPENED freyberg6.sfr_connectiondata.txt
 FILE TYPE:OPEN/CLOSE   UNIT 1027   STATUS:OLD                 
 FORMAT:FORMATTED              ACCESS:SEQUENTIAL          
 ACTION:READ                


 PROCESSING SFR CONNECTIONDATA
 END OF SFR CONNECTIONDATA

 IC -- INITIAL CONDITIONS PACKAGE, VERSION 8, 3/28/2015 INPUT READ FROM UNIT 1006
 # File generated by Flopy version 3.3.5 on 02/21/2022 at 14:50:11.
 PROCESSING GRIDDATA

 OPENED freyberg6.ic_strt_layer1.txt
 FILE TYPE:OPEN/CLOSE   UNIT 1028   STATUS:OLD                 
 FORMAT:FORMATTED              ACCESS:SEQUENTIAL          
 ACTION:READ                


 OPENED freyberg6.ic_strt_layer2.txt
 FILE TYPE:OPEN/CLOSE   UNIT 1029   STATUS:OLD                 
 FORMAT:FORMATTED              ACCESS:SEQUENTIAL          
 ACTION:READ                


 OPENED freyberg6.ic_strt_layer3.txt
 FILE TYPE:OPEN/CLOSE   UNIT 1030   STATUS:OLD                 
 FORMAT:FORMATTED              ACCESS:SEQUENTIAL          
 ACTION:READ                

 END PROCESSING GRIDDATA
 PROCESSING GRIDDATA

 OPENED freyberg6.npf_icelltype_layer1.txt
 FILE TYPE:OPEN/CLOSE   UNIT 1031   STATUS:OLD                 
 FORMAT:FORMATTED              ACCESS:SEQUENTIAL          
 ACTION:READ                


 OPENED freyberg6.npf_icelltype_layer2.txt
 FILE TYPE:OPEN/CLOSE   UNIT 1032   STATUS:OLD                 
 FORMAT:FORMATTED              ACCESS:SEQUENTIAL          
 ACTION:READ                


 OPENED freyberg6.npf_icelltype_layer3.txt
 FILE TYPE:OPEN/CLOSE   UNIT 1033   STATUS:OLD                 
 FORMAT:FORMATTED              ACCESS:SEQUENTIAL          
 ACTION:READ                


 OPENED freyberg6.npf_k_layer1.txt
 FILE TYPE:OPEN/CLOSE   UNIT 1034   STATUS:OLD                 
 FORMAT:FORMATTED              ACCESS:SEQUENTIAL          
 ACTION:READ                


 OPENED freyberg6.npf_k_layer2.txt
 FILE TYPE:OPEN/CLOSE   UNIT 1035   STATUS:OLD                 
 FORMAT:FORMATTED              ACCESS:SEQUENTIAL          
 ACTION:READ                


 OPENED freyberg6.npf_k_layer3.txt
 FILE TYPE:OPEN/CLOSE   UNIT 1036   STATUS:OLD                 
 FORMAT:FORMATTED              ACCESS:SEQUENTIAL          
 ACTION:READ                


 OPENED freyberg6.npf_k33_layer1.txt
 FILE TYPE:OPEN/CLOSE   UNIT 1037   STATUS:OLD                 
 FORMAT:FORMATTED              ACCESS:SEQUENTIAL          
 ACTION:READ                


 OPENED freyberg6.npf_k33_layer2.txt
 FILE TYPE:OPEN/CLOSE   UNIT 1038   STATUS:OLD                 
 FORMAT:FORMATTED              ACCESS:SEQUENTIAL          
 ACTION:READ                


 OPENED freyberg6.npf_k33_layer3.txt
 FILE TYPE:OPEN/CLOSE   UNIT 1039   STATUS:OLD                 
 FORMAT:FORMATTED              ACCESS:SEQUENTIAL          
 ACTION:READ                

 K22 not provided.  Assuming K22 = K.
 END PROCESSING GRIDDATA

 STO -- STORAGE PACKAGE, VERSION 1, 5/19/2014 INPUT READ FROM UNIT 1008


 # File generated by Flopy version 3.3.5 on 02/21/2022 at 14:50:11.
 PROCESSING STORAGE OPTIONS
 END OF STORAGE OPTIONS
 PROCESSING GRIDDATA

 OPENED freyberg6.sto_iconvert_layer1.txt
 FILE TYPE:OPEN/CLOSE   UNIT 1040   STATUS:OLD                 
 FORMAT:FORMATTED              ACCESS:SEQUENTIAL          
 ACTION:READ                


 OPENED freyberg6.sto_iconvert_layer2.txt
 FILE TYPE:OPEN/CLOSE   UNIT 1041   STATUS:OLD                 
 FORMAT:FORMATTED              ACCESS:SEQUENTIAL          
 ACTION:READ                


 OPENED freyberg6.sto_iconvert_layer3.txt
 FILE TYPE:OPEN/CLOSE   UNIT 1042   STATUS:OLD                 
 FORMAT:FORMATTED              ACCESS:SEQUENTIAL          
 ACTION:READ                


 OPENED freyberg6.sto_ss_layer1.txt
 FILE TYPE:OPEN/CLOSE   UNIT 1043   STATUS:OLD                 
 FORMAT:FORMATTED              ACCESS:SEQUENTIAL          
 ACTION:READ                


 OPENED freyberg6.sto_ss_layer2.txt
 FILE TYPE:OPEN/CLOSE   UNIT 1044   STATUS:OLD                 
 FORMAT:FORMATTED              ACCESS:SEQUENTIAL          
 ACTION:READ                


 OPENED freyberg6.sto_ss_layer3.txt
 FILE TYPE:OPEN/CLOSE   UNIT 1045   STATUS:OLD                 
 FORMAT:FORMATTED              ACCESS:SEQUENTIAL          
 ACTION:READ                


 OPENED freyberg6.sto_sy_layer1.txt
 FILE TYPE:OPEN/CLOSE   UNIT 1046   STATUS:OLD                 
 FORMAT:FORMATTED              ACCESS:SEQUENTIAL          
 ACTION:READ                


 OPENED freyberg6.sto_sy_layer2.txt
 FILE TYPE:OPEN/CLOSE   UNIT 1047   STATUS:OLD                 
 FORMAT:FORMATTED              ACCESS:SEQUENTIAL          
 ACTION:READ                


 OPENED freyberg6.sto_sy_layer3.txt
 FILE TYPE:OPEN/CLOSE   UNIT 1048   STATUS:OLD                 
 FORMAT:FORMATTED              ACCESS:SEQUENTIAL          
 ACTION:READ                

 END PROCESSING GRIDDATA

The observation utility is active for "FREYBERG6"
 # File generated by Flopy version 3.3.5 on 02/21/2022 at 14:50:11.

Processing observation options:

Text output number of digits of precision set to: 10
The PRINT_INPUT option has been specified.


 OPENED head.obs_continuous_heads.csv.txt
 FILE TYPE:OPEN/CLOSE   UNIT 1049   STATUS:OLD                 
 FORMAT:FORMATTED              ACCESS:SEQUENTIAL          
 ACTION:READ                


 OBSERVATIONS READ FROM FILE "head.obs"
 ----------------------------------------------------------------------------------------------------------------------------------------------------------------------------------------------------------------------------
 NAME                                     TYPE                                       TIME         LOCATION DATA                              OUTPUT FILENAME                                                                 
 ----------------------------------------------------------------------------------------------------------------------------------------------------------------------------------------------------------------------------
 TRGW_2_2_15                              CONTINUOUS  HEAD                           ALL TIMES    "3 3 16"                                   heads.csv                                                                       
 TRGW_2_2_9                               CONTINUOUS  HEAD                           ALL TIMES    "3 3 10"                                   heads.csv                                                                       
 TRGW_2_3_8                               CONTINUOUS  HEAD                           ALL TIMES    "3 4 9"                                    heads.csv                                                                       
 TRGW_2_9_1                               CONTINUOUS  HEAD                           ALL TIMES    "3 10 2"                                   heads.csv                                                                       
 TRGW_2_13_10                             CONTINUOUS  HEAD                           ALL TIMES    "3 14 11"                                  heads.csv                                                                       
 TRGW_2_15_16                             CONTINUOUS  HEAD                           ALL TIMES    "3 16 17"                                  heads.csv                                                                       
 TRGW_2_21_10                             CONTINUOUS  HEAD                           ALL TIMES    "3 22 11"                                  heads.csv                                                                       
 TRGW_2_22_15                             CONTINUOUS  HEAD                           ALL TIMES    "3 23 16"                                  heads.csv                                                                       
 TRGW_2_24_4                              CONTINUOUS  HEAD                           ALL TIMES    "3 25 5"                                   heads.csv                                                                       
 TRGW_2_26_6                              CONTINUOUS  HEAD                           ALL TIMES    "3 27 7"                                   heads.csv                                                                       
 TRGW_2_29_15                             CONTINUOUS  HEAD                           ALL TIMES    "3 30 16"                                  heads.csv                                                                       
 TRGW_2_33_7                              CONTINUOUS  HEAD                           ALL TIMES    "3 34 8"                                   heads.csv                                                                       
 TRGW_2_34_10                             CONTINUOUS  HEAD                           ALL TIMES    "3 35 11"                                  heads.csv                                                                       
 TRGW_0_2_15                              CONTINUOUS  HEAD                           ALL TIMES    "1 3 16"                                   heads.csv                                                                       
 TRGW_0_2_9                               CONTINUOUS  HEAD                           ALL TIMES    "1 3 10"                                   heads.csv                                                                       
 TRGW_0_3_8                               CONTINUOUS  HEAD                           ALL TIMES    "1 4 9"                                    heads.csv                                                                       
 TRGW_0_9_1                               CONTINUOUS  HEAD                           ALL TIMES    "1 10 2"                                   heads.csv                                                                       
 TRGW_0_13_10                             CONTINUOUS  HEAD                           ALL TIMES    "1 14 11"                                  heads.csv                                                                       
 TRGW_0_15_16                             CONTINUOUS  HEAD                           ALL TIMES    "1 16 17"                                  heads.csv                                                                       
 TRGW_0_21_10                             CONTINUOUS  HEAD                           ALL TIMES    "1 22 11"                                  heads.csv                                                                       
 TRGW_0_22_15                             CONTINUOUS  HEAD                           ALL TIMES    "1 23 16"                                  heads.csv                                                                       
 TRGW_0_24_4                              CONTINUOUS  HEAD                           ALL TIMES    "1 25 5"                                   heads.csv                                                                       
 TRGW_0_26_6                              CONTINUOUS  HEAD                           ALL TIMES    "1 27 7"                                   heads.csv                                                                       
 TRGW_0_29_15                             CONTINUOUS  HEAD                           ALL TIMES    "1 30 16"                                  heads.csv                                                                       
 TRGW_0_33_7                              CONTINUOUS  HEAD                           ALL TIMES    "1 34 8"                                   heads.csv                                                                       
 TRGW_0_34_10                             CONTINUOUS  HEAD                           ALL TIMES    "1 35 11"                                  heads.csv                                                                       
 ----------------------------------------------------------------------------------------------------------------------------------------------------------------------------------------------------------------------------


    BINARY GRID INFORMATION WILL BE WRITTEN TO:
      UNIT NUMBER: 1051
      FILE NAME: C:\Users\rui2h\Documents\GitHub\GMDSI_notebooks\models\freyberg_mf6_truth\freyberg6.dis.grb

 OPENED C:\Users\rui2h\Documents\GitHub\GMDSI_notebooks\models\freyberg_mf6_truth\freyberg6.dis.grb
 FILE TYPE:DATA(BINARY)   UNIT 1051   STATUS:REPLACE             
 FORMAT:UNFORMATTED            ACCESS:STREAM              
 ACTION:READWRITE           

      THE LAST TIME STEP WILL BE PRINTED
      THE LAST TIME STEP WILL BE PRINTED
 # File generated by Flopy version 3.3.5 on 02/21/2022 at 14:50:11.

 PROCESSING OC OPTIONS

    BUDGET INFORMATION WILL BE WRITTEN TO:
      UNIT NUMBER: 1052
      FILE NAME: freyberg6_freyberg.cbc

 OPENED freyberg6_freyberg.cbc
 FILE TYPE:DATA(BINARY)   UNIT 1052   STATUS:REPLACE             
 FORMAT:UNFORMATTED            ACCESS:STREAM              
 ACTION:READWRITE           

    HEAD INFORMATION WILL BE WRITTEN TO:
      UNIT NUMBER: 1053
      FILE NAME: freyberg6_freyberg.hds

 OPENED freyberg6_freyberg.hds
 FILE TYPE:DATA(BINARY)   UNIT 1053   STATUS:REPLACE             
 FORMAT:UNFORMATTED            ACCESS:STREAM              
 ACTION:READWRITE           

 END OF OC OPTIONS

The observation utility is active for "SFR_1"
 # File generated by Flopy version 3.3.5 on 02/21/2022 at 14:50:11.

Processing observation options:



 OPENED sfr.obs_continuous_sfr.csv.txt
 FILE TYPE:OPEN/CLOSE   UNIT 1054   STATUS:OLD                 
 FORMAT:FORMATTED              ACCESS:SEQUENTIAL          
 ACTION:READ                


 SFR PACKAGE (SFR_1) STATIC REACH DATA
 ---------------------------------------------------------------------------------------------------------------------------------------
                                                                                                                              UPSTREAM  
   NUMBER   CELLID                  LENGTH       WIDTH        SLOPE         TOP       THICKNESS        HK       ROUGHNESS     FRACTION  
 ---------------------------------------------------------------------------------------------------------------------------------------
     1      (1,1,16)              250.00       5.0000       5.00000E-05  34.000       1.0000       4.59278E-02  3.00000E-02  1.0000     
     2      (1,2,16)              250.00       5.0000       5.00000E-05  33.987       1.0000       5.89060E-02  3.00000E-02  1.0000     
     3      (1,3,16)              250.00       5.0000       5.00000E-05  33.974       1.0000       5.93967E-02  3.00000E-02  1.0000     
     4      (1,4,16)              250.00       5.0000       5.00000E-05  33.962       1.0000       9.48145E-02  3.00000E-02  1.0000     
     5      (1,5,16)              250.00       5.0000       5.00000E-05  33.949       1.0000       6.90068E-02  3.00000E-02  1.0000     
     6      (1,6,16)              250.00       5.0000       5.00000E-05  33.936       1.0000       6.15183E-02  3.00000E-02  1.0000     
     7      (1,7,16)              250.00       5.0000       5.00000E-05  33.923       1.0000       3.40166E-02  3.00000E-02  1.0000     
     8      (1,8,16)              250.00       5.0000       5.00000E-05  33.910       1.0000       3.24720E-02  3.00000E-02  1.0000     
     9      (1,9,16)              250.00       5.0000       5.00000E-05  33.897       1.0000       3.78158E-02  3.00000E-02  1.0000     
     10     (1,10,16)             250.00       5.0000       5.00000E-05  33.885       1.0000       2.12418E-02  3.00000E-02  1.0000     
     11     (1,11,16)             250.00       5.0000       5.00000E-05  33.872       1.0000       4.36101E-02  3.00000E-02  1.0000     
     12     (1,12,16)             250.00       5.0000       5.00000E-05  33.859       1.0000       0.14952      3.00000E-02  1.0000     
     13     (1,13,16)             250.00       5.0000       5.00000E-05  33.846       1.0000       0.20953      3.00000E-02  1.0000     
     14     (1,14,16)             250.00       5.0000       5.00000E-05  33.833       1.0000       0.17222      3.00000E-02  1.0000     
     15     (1,15,16)             250.00       5.0000       5.00000E-05  33.821       1.0000       8.24350E-02  3.00000E-02  1.0000     
     16     (1,16,16)             250.00       5.0000       5.00000E-05  33.808       1.0000       6.74715E-02  3.00000E-02  1.0000     
     17     (1,17,16)             250.00       5.0000       5.00000E-05  33.795       1.0000       9.17051E-02  3.00000E-02  1.0000     
     18     (1,18,16)             250.00       5.0000       5.00000E-05  33.782       1.0000       0.11067      3.00000E-02  1.0000     
     19     (1,19,16)             250.00       5.0000       5.00000E-05  33.769       1.0000       0.25569      3.00000E-02  1.0000     
     20     (1,20,16)             250.00       5.0000       5.00000E-05  33.756       1.0000       0.17913      3.00000E-02  1.0000     
     21     (1,21,16)             250.00       5.0000       5.00000E-05  33.744       1.0000       0.15177      3.00000E-02  1.0000     
     22     (1,22,16)             250.00       5.0000       5.00000E-05  33.731       1.0000       0.13698      3.00000E-02  1.0000     
     23     (1,23,16)             250.00       5.0000       5.00000E-05  33.718       1.0000       9.12335E-02  3.00000E-02  1.0000     
     24     (1,24,16)             250.00       5.0000       5.00000E-05  33.705       1.0000       4.66905E-02  3.00000E-02  1.0000     
     25     (1,25,16)             250.00       5.0000       5.00000E-05  33.692       1.0000       8.70090E-02  3.00000E-02  1.0000     
     26     (1,26,16)             250.00       5.0000       5.00000E-05  33.679       1.0000       6.42810E-02  3.00000E-02  1.0000     
     27     (1,27,16)             250.00       5.0000       5.00000E-05  33.667       1.0000       6.24560E-02  3.00000E-02  1.0000     
     28     (1,28,16)             250.00       5.0000       5.00000E-05  33.654       1.0000       7.90161E-02  3.00000E-02  1.0000     
     29     (1,29,16)             250.00       5.0000       5.00000E-05  33.641       1.0000       0.11970      3.00000E-02  1.0000     
     30     (1,30,16)             250.00       5.0000       5.00000E-05  33.628       1.0000       6.78987E-02  3.00000E-02  1.0000     
     31     (1,31,16)             250.00       5.0000       5.00000E-05  33.615       1.0000       3.24991E-02  3.00000E-02  1.0000     
     32     (1,32,16)             250.00       5.0000       5.00000E-05  33.603       1.0000       5.89573E-02  3.00000E-02  1.0000     
     33     (1,33,16)             250.00       5.0000       5.00000E-05  33.590       1.0000       3.21460E-02  3.00000E-02  1.0000     
     34     (1,34,16)             250.00       5.0000       5.00000E-05  33.577       1.0000       3.30449E-02  3.00000E-02  1.0000     
     35     (1,35,16)             250.00       5.0000       5.00000E-05  33.564       1.0000       3.08790E-02  3.00000E-02  1.0000     
     36     (1,36,16)             250.00       5.0000       5.00000E-05  33.551       1.0000       2.50172E-02  3.00000E-02  1.0000     
     37     (1,37,16)             250.00       5.0000       5.00000E-05  33.538       1.0000       6.65357E-02  3.00000E-02  1.0000     
     38     (1,38,16)             250.00       5.0000       5.00000E-05  33.526       1.0000       3.49596E-02  3.00000E-02  1.0000     
     39     (1,39,16)             250.00       5.0000       5.00000E-05  33.513       1.0000       3.37857E-02  3.00000E-02  1.0000     
     40     (1,40,16)             250.00       5.0000       5.00000E-05  33.510       1.0000       6.08367E-02  3.00000E-02  1.0000     
 ---------------------------------------------------------------------------------------------------------------------------------------



 SFR PACKAGE (SFR_1) STATIC REACH CONNECTION DATA
 --------------------------------
   REACH      CONN 1     CONN 2  
 --------------------------------
     1          2                
     2          1          3     
     3          2          4     
     4          3          5     
     5          4          6     
     6          5          7     
     7          6          8     
     8          7          9     
     9          8          10    
     10         9          11    
     11         10         12    
     12         11         13    
     13         12         14    
     14         13         15    
     15         14         16    
     16         15         17    
     17         16         18    
     18         17         19    
     19         18         20    
     20         19         21    
     21         20         22    
     22         21         23    
     23         22         24    
     24         23         25    
     25         24         26    
     26         25         27    
     27         26         28    
     28         27         29    
     29         28         30    
     30         29         31    
     31         30         32    
     32         31         33    
     33         32         34    
     34         33         35    
     35         34         36    
     36         35         37    
     37         36         38    
     38         37         39    
     39         38         40    
     40         39               
 --------------------------------



 SFR PACKAGE (SFR_1) STATIC UPSTREAM REACH CONNECTION DATA
 ---------------------
             UPSTREAM 
   REACH      CONN 1  
 ---------------------
     1                
     2          1     
     3          2     
     4          3     
     5          4     
     6          5     
     7          6     
     8          7     
     9          8     
     10         9     
     11         10    
     12         11    
     13         12    
     14         13    
     15         14    
     16         15    
     17         16    
     18         17    
     19         18    
     20         19    
     21         20    
     22         21    
     23         22    
     24         23    
     25         24    
     26         25    
     27         26    
     28         27    
     29         28    
     30         29    
     31         30    
     32         31    
     33         32    
     34         33    
     35         34    
     36         35    
     37         36    
     38         37    
     39         38    
     40         39    
 ---------------------



 SFR PACKAGE (SFR_1) STATIC DOWNSTREAM REACH CONNECTION DATA
 ---------------------
            DOWNSTREAM
   REACH      CONN 1  
 ---------------------
     1          2     
     2          3     
     3          4     
     4          5     
     5          6     
     6          7     
     7          8     
     8          9     
     9          10    
     10         11    
     11         12    
     12         13    
     13         14    
     14         15    
     15         16    
     16         17    
     17         18    
     18         19    
     19         20    
     20         21    
     21         22    
     22         23    
     23         24    
     24         25    
     25         26    
     26         27    
     27         28    
     28         29    
     29         30    
     30         31    
     31         32    
     32         33    
     33         34    
     34         35    
     35         36    
     36         37    
     37         38    
     38         39    
     39         40    
     40               
 ---------------------



start timestep kper="1" kstp="1" mode="normal"


 BEGIN READING OUTPUT CONTROL FOR STRESS PERIOD 1
      ALL TIME STEPS WILL BE SAVED
      ALL TIME STEPS WILL BE SAVED
      ALL TIME STEPS WILL BE PRINTED

 END READING OUTPUT CONTROL FOR STRESS PERIOD 1


 PROCESSING STORAGE PERIOD DATA
 END PROCESSING STORAGE PERIOD DATA


 STRESS PERIOD 1 IS STEADY-STATE


 OPENED freyberg6.wel_stress_period_data_1.txt
 FILE TYPE:OPEN/CLOSE   UNIT 1056   STATUS:OLD                 
 FORMAT:FORMATTED              ACCESS:SEQUENTIAL          
 ACTION:READ                

 ---------------------------------------------------
  WEL NO.    LAYER    ROW     COL     STRESS RATE   
 ---------------------------------------------------
     1         3      10      17    -153.679515     
     2         3      12      14    -172.586075     
     3         3      21      15    -177.204099     
     4         3      27      11    -149.664927     
     5         3      30       7    -126.591015     
     6         3      35      13    -152.627126     
 ---------------------------------------------------



 OPENED freyberg6.ghb_stress_period_data_1.txt
 FILE TYPE:OPEN/CLOSE   UNIT 1057   STATUS:OLD                 
 FORMAT:FORMATTED              ACCESS:SEQUENTIAL          
 ACTION:READ                

 --------------------------------------------------------------------
  GHB NO.    LAYER    ROW     COL        STAGE         CONDUCTANCE   
 --------------------------------------------------------------------
     1         1      40       6     32.5000000       75.1365212     
     2         1      40       7     32.5301785       87.3294685     
     3         1      40       8     32.9243797       58.8861577     
     4         1      40       9     33.4838590       86.6938210     
     5         1      40      10     33.8030890       100.000000     
     6         1      40      11     33.2791560       100.000000     
     7         1      40      12     32.5000000       100.000000     
     8         1      40      13     32.5000000       100.000000     
     9         1      40      14     32.5000000       100.000000     
     10        1      40      15     32.5000000       100.000000     
     11        2      40       6     32.5000000       100.000000     
     12        2      40       7     32.5000000       100.000000     
     13        2      40       8     32.5000000       100.000000     
     14        2      40       9     32.5000000       100.000000     
     15        2      40      10     32.5000000       100.000000     
     16        2      40      11     32.5000000       100.000000     
     17        2      40      12     32.8855701       100.000000     
     18        2      40      13     32.5000000       100.000000     
     19        2      40      14     32.5000000       100.000000     
     20        2      40      15     32.5000000       100.000000     
     21        3      40       6     32.8094597       100.000000     
     22        3      40       7     32.5933112       100.000000     
     23        3      40       8     32.5000000       100.000000     
     24        3      40       9     32.5000000       100.000000     
     25        3      40      10     32.5000000       100.000000     
     26        3      40      11     32.5000000       100.000000     
     27        3      40      12     32.5000000       100.000000     
     28        3      40      13     32.5000000       100.000000     
     29        3      40      14     32.5000000       100.000000     
     30        3      40      15     32.5000000       100.000000     
 --------------------------------------------------------------------



 OPENED freyberg6.rch_recharge_1.txt
 FILE TYPE:OPEN/CLOSE   UNIT 1058   STATUS:OLD                 
 FORMAT:FORMATTED              ACCESS:SEQUENTIAL          
 ACTION:READ                


 OPENED freyberg6.sfr_perioddata_1.txt
 FILE TYPE:OPEN/CLOSE   UNIT 1059   STATUS:OLD                 
 FORMAT:FORMATTED              ACCESS:SEQUENTIAL          
 ACTION:READ                


 SFR PACKAGE (SFR_1) DATA FOR PERIOD      1
 ---------------------------------------------------------------
   NUMBER   KEYWORD                  VALUE 1         VALUE 2    
 ---------------------------------------------------------------
     1      INFLOW                  100.0641                    
 ---------------------------------------------------------------



 SFR PACKAGE (SFR_1) CONNECTED REACH UPSTREAM FRACTION DATA
 ----------------------------------
            DOWNSTREAM             
   REACH     REACH 1    FRACTION 1 
 ----------------------------------
     1          2       1.0000     
     2          3       1.0000     
     3          4       1.0000     
     4          5       1.0000     
     5          6       1.0000     
     6          7       1.0000     
     7          8       1.0000     
     8          9       1.0000     
     9          10      1.0000     
     10         11      1.0000     
     11         12      1.0000     
     12         13      1.0000     
     13         14      1.0000     
     14         15      1.0000     
     15         16      1.0000     
     16         17      1.0000     
     17         18      1.0000     
     18         19      1.0000     
     19         20      1.0000     
     20         21      1.0000     
     21         22      1.0000     
     22         23      1.0000     
     23         24      1.0000     
     24         25      1.0000     
     25         26      1.0000     
     26         27      1.0000     
     27         28      1.0000     
     28         29      1.0000     
     29         30      1.0000     
     30         31      1.0000     
     31         32      1.0000     
     32         33      1.0000     
     33         34      1.0000     
     34         35      1.0000     
     35         36      1.0000     
     36         37      1.0000     
     37         38      1.0000     
     38         39      1.0000     
     39         40      1.0000     
     40                            
 ----------------------------------


 UBDSV1 SAVING     FLOW-JA-FACE ON UNIT   1052 AT TIME STEP      1, STRESS PERIOD      1
 UBDSV06 SAVING              WEL IN MODEL FREYBERG6        PACKAGE FREYBERG6       CONNECTED TO MODEL FREYBERG6        PACKAGE WEL-1            ON UNIT   1052 AT TIME STEP      1, STRESS PERIOD      1
 UBDSV06 SAVING              GHB IN MODEL FREYBERG6        PACKAGE FREYBERG6       CONNECTED TO MODEL FREYBERG6        PACKAGE GHB-1            ON UNIT   1052 AT TIME STEP      1, STRESS PERIOD      1
 UBDSV06 SAVING              RCH IN MODEL FREYBERG6        PACKAGE FREYBERG6       CONNECTED TO MODEL FREYBERG6        PACKAGE RCH-1            ON UNIT   1052 AT TIME STEP      1, STRESS PERIOD      1
 UBDSV06 SAVING              SFR IN MODEL FREYBERG6        PACKAGE FREYBERG6       CONNECTED TO MODEL FREYBERG6        PACKAGE SFR_1            ON UNIT   1052 AT TIME STEP      1, STRESS PERIOD      1

 WEL PACKAGE (WEL-1) FLOW RATES   PERIOD      1   STEP        1
 -----------------------------------------------
   NUMBER   CELLID                    RATE      
 -----------------------------------------------
     1      (3,10,17)            -153.67952     
     2      (3,12,14)            -172.58607     
     3      (3,21,15)            -177.20410     
     4      (3,27,11)            -149.66493     
     5      (3,30,7)             -126.59101     
     6      (3,35,13)            -152.62713     
 -----------------------------------------------




 GHB PACKAGE (GHB-1) FLOW RATES   PERIOD      1   STEP        1
 -----------------------------------------------
   NUMBER   CELLID                    RATE      
 -----------------------------------------------
     1      (1,40,6)             -37.156872     
     2      (1,40,7)             -42.447087     
     3      (1,40,8)             -7.1690640     
     4      (1,40,9)              33.758208     
     5      (1,40,10)             66.735263     
     6      (1,40,11)             15.107971     
     7      (1,40,12)            -60.198368     
     8      (1,40,13)            -57.255284     
     9      (1,40,14)            -57.812230     
     10     (1,40,15)            -62.964185     
     11     (2,40,6)             -50.182436     
     12     (2,40,7)             -52.112503     
     13     (2,40,8)             -54.633120     
     14     (2,40,9)             -59.127121     
     15     (2,40,10)            -63.016297     
     16     (2,40,11)            -62.527926     
     17     (2,40,12)            -21.996910     
     18     (2,40,13)            -57.640548     
     19     (2,40,14)            -58.367802     
     20     (2,40,15)            -63.780772     
     21     (3,40,6)             -21.274057     
     22     (3,40,7)             -44.197543     
     23     (3,40,8)             -55.490954     
     24     (3,40,9)             -59.333448     
     25     (3,40,10)            -62.940454     
     26     (3,40,11)            -63.250246     
     27     (3,40,12)            -61.313037     
     28     (3,40,13)            -58.821932     
     29     (3,40,14)            -59.749320     
     30     (3,40,15)            -65.735454     
 -----------------------------------------------




 HEAD WILL BE SAVED ON UNIT 1053 AT END OF TIME STEP    1, STRESS PERIOD    1


  SFR_1 BUDGET FOR ENTIRE MODEL AT END OF TIME STEP    1, STRESS PERIOD   1
  ------------------------------------------------------------------------------

     CUMULATIVE SFR_1      L**3       RATES FOR THIS TIME STEP      L**3/T
     ------------------                 ------------------------

           IN:                                      IN:
           ---                                      ---
                 GWF =        1140.5396                   GWF =        1140.5396
            RAINFALL =           0.0000              RAINFALL =           0.0000
         EVAPORATION =           0.0000           EVAPORATION =           0.0000
              RUNOFF =           0.0000                RUNOFF =           0.0000
          EXT-INFLOW =         100.0641            EXT-INFLOW =         100.0641
         EXT-OUTFLOW =           0.0000           EXT-OUTFLOW =           0.0000
             STORAGE =           0.0000               STORAGE =           0.0000

            TOTAL IN =        1240.6037              TOTAL IN =        1240.6037

          OUT:                                     OUT:
          ----                                     ----
                 GWF =          37.3152                   GWF =          37.3152
            RAINFALL =           0.0000              RAINFALL =           0.0000
         EVAPORATION =           0.0000           EVAPORATION =           0.0000
              RUNOFF =           0.0000                RUNOFF =           0.0000
          EXT-INFLOW =           0.0000            EXT-INFLOW =           0.0000
         EXT-OUTFLOW =        1203.2885           EXT-OUTFLOW =        1203.2885
             STORAGE =           0.0000               STORAGE =           0.0000

           TOTAL OUT =        1240.6037             TOTAL OUT =        1240.6037

            IN - OUT =       2.2737E-13              IN - OUT =       2.2737E-13

 PERCENT DISCREPANCY =           0.00     PERCENT DISCREPANCY =           0.00



  VOLUME BUDGET FOR ENTIRE MODEL AT END OF TIME STEP    1, STRESS PERIOD   1
  ---------------------------------------------------------------------------------------------------

     CUMULATIVE VOLUME      L**3       RATES FOR THIS TIME STEP      L**3/T          PACKAGE NAME    
     ------------------                 ------------------------                     ----------------

           IN:                                      IN:
           ---                                      ---
              STO-SS =           0.0000                STO-SS =           0.0000     STORAGE         
              STO-SY =           0.0000                STO-SY =           0.0000     STORAGE         
                 WEL =           0.0000                   WEL =           0.0000     WEL-1           
                 GHB =         115.6014                   GHB =         115.6014     GHB-1           
                 RCH =        3333.1402                   RCH =        3333.1402     RCH-1           
                 SFR =          37.2906                   SFR =          37.2906     SFR_1           

            TOTAL IN =        3486.0323              TOTAL IN =        3486.0323

          OUT:                                     OUT:
          ----                                     ----
              STO-SS =           0.0000                STO-SS =           0.0000     STORAGE         
              STO-SY =           0.0000                STO-SY =           0.0000     STORAGE         
                 WEL =         932.3528                   WEL =         932.3528     WEL-1           
                 GHB =        1420.4950                   GHB =        1420.4950     GHB-1           
                 RCH =           0.0000                   RCH =           0.0000     RCH-1           
                 SFR =        1140.1814                   SFR =        1140.1814     SFR_1           

           TOTAL OUT =        3493.0292             TOTAL OUT =        3493.0292

            IN - OUT =          -6.9969              IN - OUT =          -6.9969

 PERCENT DISCREPANCY =          -0.20     PERCENT DISCREPANCY =          -0.20




         TIME SUMMARY AT END OF TIME STEP    1 IN STRESS PERIOD    1
                    SECONDS     MINUTES      HOURS       DAYS        YEARS
                    -----------------------------------------------------------
   TIME STEP LENGTH  86400.      1440.0      24.000      1.0000     2.73785E-03
 STRESS PERIOD TIME  86400.      1440.0      24.000      1.0000     2.73785E-03
         TOTAL TIME  86400.      1440.0      24.000      1.0000     2.73785E-03


end timestep


start timestep kper="2" kstp="1" mode="normal"


 END OF FILE DETECTED IN OUTPUT CONTROL.
 CURRENT OUTPUT CONTROL SETTINGS WILL BE 
 REPEATED UNTIL THE END OF THE SIMULATION.

 OUTPUT CONTROL FOR STRESS PERIOD 2 IS REPEATED USING SETTINGS FROM A PREVIOUS STRESS PERIOD.


 PROCESSING STORAGE PERIOD DATA
 END PROCESSING STORAGE PERIOD DATA


 STRESS PERIOD 2 IS TRANSIENT


 OPENED freyberg6.wel_stress_period_data_2.txt
 FILE TYPE:OPEN/CLOSE   UNIT 1060   STATUS:OLD                 
 FORMAT:FORMATTED              ACCESS:SEQUENTIAL          
 ACTION:READ                

 ---------------------------------------------------
  WEL NO.    LAYER    ROW     COL     STRESS RATE   
 ---------------------------------------------------
     1         3      10      17    -66.9641187     
     2         3      12      14    -71.8759517     
     3         3      21      15    -42.2487091     
     4         3      27      11    -67.4174055     
     5         3      30       7    -46.6884400     
     6         3      35      13    -44.0074255     
 ---------------------------------------------------



 REUSING GHBS FROM LAST STRESS PERIOD

 OPENED freyberg6.rch_recharge_2.txt
 FILE TYPE:OPEN/CLOSE   UNIT 1061   STATUS:OLD                 
 FORMAT:FORMATTED              ACCESS:SEQUENTIAL          
 ACTION:READ                


 OPENED freyberg6.sfr_perioddata_2.txt
 FILE TYPE:OPEN/CLOSE   UNIT 1062   STATUS:OLD                 
 FORMAT:FORMATTED              ACCESS:SEQUENTIAL          
 ACTION:READ                


 SFR PACKAGE (SFR_1) DATA FOR PERIOD      2
 ---------------------------------------------------------------
   NUMBER   KEYWORD                  VALUE 1         VALUE 2    
 ---------------------------------------------------------------
     1      INFLOW               125.51190266220                
 ---------------------------------------------------------------


 UBDSV1 SAVING     FLOW-JA-FACE ON UNIT   1052 AT TIME STEP      1, STRESS PERIOD      2
 UBDSV06 SAVING              WEL IN MODEL FREYBERG6        PACKAGE FREYBERG6       CONNECTED TO MODEL FREYBERG6        PACKAGE WEL-1            ON UNIT   1052 AT TIME STEP      1, STRESS PERIOD      2
 UBDSV06 SAVING              GHB IN MODEL FREYBERG6        PACKAGE FREYBERG6       CONNECTED TO MODEL FREYBERG6        PACKAGE GHB-1            ON UNIT   1052 AT TIME STEP      1, STRESS PERIOD      2
 UBDSV06 SAVING              RCH IN MODEL FREYBERG6        PACKAGE FREYBERG6       CONNECTED TO MODEL FREYBERG6        PACKAGE RCH-1            ON UNIT   1052 AT TIME STEP      1, STRESS PERIOD      2
 UBDSV06 SAVING              SFR IN MODEL FREYBERG6        PACKAGE FREYBERG6       CONNECTED TO MODEL FREYBERG6        PACKAGE SFR_1            ON UNIT   1052 AT TIME STEP      1, STRESS PERIOD      2

 WEL PACKAGE (WEL-1) FLOW RATES   PERIOD      2   STEP        1
 -----------------------------------------------
   NUMBER   CELLID                    RATE      
 -----------------------------------------------
     1      (3,10,17)            -66.964119     
     2      (3,12,14)            -71.875952     
     3      (3,21,15)            -42.248709     
     4      (3,27,11)            -67.417405     
     5      (3,30,7)             -46.688440     
     6      (3,35,13)            -44.007425     
 -----------------------------------------------




 GHB PACKAGE (GHB-1) FLOW RATES   PERIOD      2   STEP        1
 -----------------------------------------------
   NUMBER   CELLID                    RATE      
 -----------------------------------------------
     1      (1,40,6)             -35.767485     
     2      (1,40,7)             -40.659620     
     3      (1,40,8)             -5.8852266     
     4      (1,40,9)              35.628154     
     5      (1,40,10)             68.844958     
     6      (1,40,11)             17.180299     
     7      (1,40,12)            -58.040445     
     8      (1,40,13)            -55.036047     
     9      (1,40,14)            -55.504480     
     10     (1,40,15)            -60.356219     
     11     (2,40,6)             -48.296177     
     12     (2,40,7)             -50.048292     
     13     (2,40,8)             -52.459223     
     14     (2,40,9)             -56.964849     
     15     (2,40,10)            -60.889069     
     16     (2,40,11)            -60.433363     
     17     (2,40,12)            -19.840289     
     18     (2,40,13)            -55.425234     
     19     (2,40,14)            -56.050941     
     20     (2,40,15)            -61.160301     
     21     (3,40,6)             -19.300890     
     22     (3,40,7)             -42.080011     
     23     (3,40,8)             -53.291637     
     24     (3,40,9)             -57.143647     
     25     (3,40,10)            -60.770893     
     26     (3,40,11)            -61.091599     
     27     (3,40,12)            -59.136567     
     28     (3,40,13)            -56.587874     
     29     (3,40,14)            -57.392708     
     30     (3,40,15)            -63.057896     
 -----------------------------------------------




 HEAD WILL BE SAVED ON UNIT 1053 AT END OF TIME STEP    1, STRESS PERIOD    2


  SFR_1 BUDGET FOR ENTIRE MODEL AT END OF TIME STEP    1, STRESS PERIOD   2
  ------------------------------------------------------------------------------

     CUMULATIVE SFR_1      L**3       RATES FOR THIS TIME STEP      L**3/T
     ------------------                 ------------------------

           IN:                                      IN:
           ---                                      ---
                 GWF =       33680.1205                   GWF =        1049.6639
            RAINFALL =           0.0000              RAINFALL =           0.0000
         EVAPORATION =           0.0000           EVAPORATION =           0.0000
              RUNOFF =           0.0000                RUNOFF =           0.0000
          EXT-INFLOW =        3990.9331            EXT-INFLOW =         125.5119
         EXT-OUTFLOW =           0.0000           EXT-OUTFLOW =           0.0000
             STORAGE =           0.0000               STORAGE =           0.0000

            TOTAL IN =       37671.0536              TOTAL IN =        1175.1758

          OUT:                                     OUT:
          ----                                     ----
                 GWF =        1458.5379                   GWF =          45.8459
            RAINFALL =           0.0000              RAINFALL =           0.0000
         EVAPORATION =           0.0000           EVAPORATION =           0.0000
              RUNOFF =           0.0000                RUNOFF =           0.0000
          EXT-INFLOW =           0.0000            EXT-INFLOW =           0.0000
         EXT-OUTFLOW =       36212.5157           EXT-OUTFLOW =        1129.3299
             STORAGE =           0.0000               STORAGE =           0.0000

           TOTAL OUT =       37671.0536             TOTAL OUT =        1175.1758

            IN - OUT =       1.4552E-11              IN - OUT =       4.5475E-13

 PERCENT DISCREPANCY =           0.00     PERCENT DISCREPANCY =           0.00



  VOLUME BUDGET FOR ENTIRE MODEL AT END OF TIME STEP    1, STRESS PERIOD   2
  ---------------------------------------------------------------------------------------------------

     CUMULATIVE VOLUME      L**3       RATES FOR THIS TIME STEP      L**3/T          PACKAGE NAME    
     ------------------                 ------------------------                     ----------------

           IN:                                      IN:
           ---                                      ---
              STO-SS =          62.4771                STO-SS =           2.0154     STORAGE         
              STO-SY =       40321.2949                STO-SY =        1300.6869     STORAGE         
                 WEL =           0.0000                   WEL =           0.0000     WEL-1           
                 GHB =        3886.8572                   GHB =         121.6534     GHB-1           
                 RCH =       44521.6058                   RCH =        1328.6602     RCH-1           
                 SFR =        1457.5193                   SFR =          45.8138     SFR_1           

            TOTAL IN =       90249.7543              TOTAL IN =        2798.8297

          OUT:                                     OUT:
          ----                                     ----
              STO-SS =           3.1153                STO-SS =           0.1005     STORAGE         
              STO-SY =        1552.4113                STO-SY =          50.0778     STORAGE         
                 WEL =       11447.6163                   WEL =         339.2021     WEL-1           
                 GHB =       43663.2954                   GHB =        1362.6710     GHB-1           
                 RCH =           0.0000                   RCH =           0.0000     RCH-1           
                 SFR =       33684.9006                   SFR =        1049.8296     SFR_1           

           TOTAL OUT =       90351.3389             TOTAL OUT =        2801.8810

            IN - OUT =        -101.5846              IN - OUT =          -3.0512

 PERCENT DISCREPANCY =          -0.11     PERCENT DISCREPANCY =          -0.11




         TIME SUMMARY AT END OF TIME STEP    1 IN STRESS PERIOD    2
                    SECONDS     MINUTES      HOURS       DAYS        YEARS
                    -----------------------------------------------------------
   TIME STEP LENGTH 2.67840E+06  44640.      744.00      31.000     8.48734E-02
 STRESS PERIOD TIME 2.67840E+06  44640.      744.00      31.000     8.48734E-02
         TOTAL TIME 2.76480E+06  46080.      768.00      32.000     8.76112E-02


end timestep


start timestep kper="3" kstp="1" mode="normal"


 OUTPUT CONTROL FOR STRESS PERIOD 3 IS REPEATED USING SETTINGS FROM A PREVIOUS STRESS PERIOD.


 STRESS PERIOD 3 IS TRANSIENT


 OPENED freyberg6.wel_stress_period_data_3.txt
 FILE TYPE:OPEN/CLOSE   UNIT 1063   STATUS:OLD                 
 FORMAT:FORMATTED              ACCESS:SEQUENTIAL          
 ACTION:READ                

 ---------------------------------------------------
  WEL NO.    LAYER    ROW     COL     STRESS RATE   
 ---------------------------------------------------
     1         3      10      17    -62.5490747     
     2         3      12      14    -79.8842779     
     3         3      21      15    -75.9732719     
     4         3      27      11    -63.1976592     
     5         3      30       7    -61.0337848     
     6         3      35      13    -84.6559769     
 ---------------------------------------------------



 REUSING GHBS FROM LAST STRESS PERIOD

 OPENED freyberg6.rch_recharge_3.txt
 FILE TYPE:OPEN/CLOSE   UNIT 1064   STATUS:OLD                 
 FORMAT:FORMATTED              ACCESS:SEQUENTIAL          
 ACTION:READ                


 OPENED freyberg6.sfr_perioddata_3.txt
 FILE TYPE:OPEN/CLOSE   UNIT 1065   STATUS:OLD                 
 FORMAT:FORMATTED              ACCESS:SEQUENTIAL          
 ACTION:READ                


 SFR PACKAGE (SFR_1) DATA FOR PERIOD      3
 ---------------------------------------------------------------
   NUMBER   KEYWORD                  VALUE 1         VALUE 2    
 ---------------------------------------------------------------
     1      INFLOW               158.92774810909                
 ---------------------------------------------------------------


 UBDSV1 SAVING     FLOW-JA-FACE ON UNIT   1052 AT TIME STEP      1, STRESS PERIOD      3
 UBDSV06 SAVING              WEL IN MODEL FREYBERG6        PACKAGE FREYBERG6       CONNECTED TO MODEL FREYBERG6        PACKAGE WEL-1            ON UNIT   1052 AT TIME STEP      1, STRESS PERIOD      3
 UBDSV06 SAVING              GHB IN MODEL FREYBERG6        PACKAGE FREYBERG6       CONNECTED TO MODEL FREYBERG6        PACKAGE GHB-1            ON UNIT   1052 AT TIME STEP      1, STRESS PERIOD      3
 UBDSV06 SAVING              RCH IN MODEL FREYBERG6        PACKAGE FREYBERG6       CONNECTED TO MODEL FREYBERG6        PACKAGE RCH-1            ON UNIT   1052 AT TIME STEP      1, STRESS PERIOD      3
 UBDSV06 SAVING              SFR IN MODEL FREYBERG6        PACKAGE FREYBERG6       CONNECTED TO MODEL FREYBERG6        PACKAGE SFR_1            ON UNIT   1052 AT TIME STEP      1, STRESS PERIOD      3

 WEL PACKAGE (WEL-1) FLOW RATES   PERIOD      3   STEP        1
 -----------------------------------------------
   NUMBER   CELLID                    RATE      
 -----------------------------------------------
     1      (3,10,17)            -62.549075     
     2      (3,12,14)            -79.884278     
     3      (3,21,15)            -75.973272     
     4      (3,27,11)            -63.197659     
     5      (3,30,7)             -61.033785     
     6      (3,35,13)            -84.655977     
 -----------------------------------------------




 GHB PACKAGE (GHB-1) FLOW RATES   PERIOD      3   STEP        1
 -----------------------------------------------
   NUMBER   CELLID                    RATE      
 -----------------------------------------------
     1      (1,40,6)             -40.777430     
     2      (1,40,7)             -46.448326     
     3      (1,40,8)             -9.5891128     
     4      (1,40,9)              30.820154     
     5      (1,40,10)             63.867342     
     6      (1,40,11)             12.625206     
     7      (1,40,12)            -62.399824     
     8      (1,40,13)            -59.371717     
     9      (1,40,14)            -59.734681     
     10     (1,40,15)            -65.269292     
     11     (2,40,6)             -54.943743     
     12     (2,40,7)             -56.662611     
     13     (2,40,8)             -58.706063     
     14     (2,40,9)             -62.501780     
     15     (2,40,10)            -65.878204     
     16     (2,40,11)            -65.008396     
     17     (2,40,12)            -24.202915     
     18     (2,40,13)            -59.747569     
     19     (2,40,14)            -60.302583     
     20     (2,40,15)            -66.024913     
     21     (3,40,6)             -26.090108     
     22     (3,40,7)             -48.780985     
     23     (3,40,8)             -59.583388     
     24     (3,40,9)             -62.724670     
     25     (3,40,10)            -65.822781     
     26     (3,40,11)            -65.770497     
     27     (3,40,12)            -63.548115     
     28     (3,40,13)            -60.938693     
     29     (3,40,14)            -61.722725     
     30     (3,40,15)            -67.948920     
 -----------------------------------------------




 HEAD WILL BE SAVED ON UNIT 1053 AT END OF TIME STEP    1, STRESS PERIOD    3


  SFR_1 BUDGET FOR ENTIRE MODEL AT END OF TIME STEP    1, STRESS PERIOD   3
  ------------------------------------------------------------------------------

     CUMULATIVE SFR_1      L**3       RATES FOR THIS TIME STEP      L**3/T
     ------------------                 ------------------------

           IN:                                      IN:
           ---                                      ---
                 GWF =       74856.5160                   GWF =        1419.8757
            RAINFALL =           0.0000              RAINFALL =           0.0000
         EVAPORATION =           0.0000           EVAPORATION =           0.0000
              RUNOFF =           0.0000                RUNOFF =           0.0000
          EXT-INFLOW =        8599.8378            EXT-INFLOW =         158.9277
         EXT-OUTFLOW =           0.0000           EXT-OUTFLOW =           0.0000
             STORAGE =           0.0000               STORAGE =           0.0000

            TOTAL IN =       83456.3537              TOTAL IN =        1578.8035

          OUT:                                     OUT:
          ----                                     ----
                 GWF =        2471.8344                   GWF =          34.9413
            RAINFALL =           0.0000              RAINFALL =           0.0000
         EVAPORATION =           0.0000           EVAPORATION =           0.0000
              RUNOFF =           0.0000                RUNOFF =           0.0000
          EXT-INFLOW =           0.0000            EXT-INFLOW =           0.0000
         EXT-OUTFLOW =       80984.5193           EXT-OUTFLOW =        1543.8622
             STORAGE =           0.0000               STORAGE =           0.0000

           TOTAL OUT =       83456.3537             TOTAL OUT =        1578.8035

            IN - OUT =       2.9104E-11              IN - OUT =       2.2737E-13

 PERCENT DISCREPANCY =           0.00     PERCENT DISCREPANCY =           0.00



  VOLUME BUDGET FOR ENTIRE MODEL AT END OF TIME STEP    1, STRESS PERIOD   3
  ---------------------------------------------------------------------------------------------------

     CUMULATIVE VOLUME      L**3       RATES FOR THIS TIME STEP      L**3/T          PACKAGE NAME    
     ------------------                 ------------------------                     ----------------

           IN:                                      IN:
           ---                                      ---
              STO-SS =          62.4771                STO-SS =           0.0000     STORAGE         
              STO-SY =       40321.2949                STO-SY =           0.0000     STORAGE         
                 WEL =           0.0000                   WEL =           0.0000     WEL-1           
                 GHB =        6998.9256                   GHB =         107.3127     GHB-1           
                 RCH =      261201.8695                   RCH =        7471.7332     RCH-1           
                 SFR =        2470.7936                   SFR =          34.9405     SFR_1           

            TOTAL IN =      311055.3606              TOTAL IN =        7613.9864

          OUT:                                     OUT:
          ----                                     ----
              STO-SS =         220.3396                STO-SS =           7.4905     STORAGE         
              STO-SY =      124996.2003                STO-SY =        4256.6824     STORAGE         
                 WEL =       23839.1436                   WEL =         427.2940     WEL-1           
                 GHB =       87177.7966                   GHB =        1500.5000     GHB-1           
                 RCH =           0.0000                   RCH =           0.0000     RCH-1           
                 SFR =       74862.2445                   SFR =        1419.9084     SFR_1           

           TOTAL OUT =      311095.7246             TOTAL OUT =        7611.8754

            IN - OUT =         -40.3639              IN - OUT =           2.1111

 PERCENT DISCREPANCY =          -0.01     PERCENT DISCREPANCY =           0.03




         TIME SUMMARY AT END OF TIME STEP    1 IN STRESS PERIOD    3
                    SECONDS     MINUTES      HOURS       DAYS        YEARS
                    -----------------------------------------------------------
   TIME STEP LENGTH 2.50560E+06  41760.      696.00      29.000     7.93977E-02
 STRESS PERIOD TIME 2.50560E+06  41760.      696.00      29.000     7.93977E-02
         TOTAL TIME 5.27040E+06  87840.      1464.0      61.000     0.16701    


end timestep


start timestep kper="4" kstp="1" mode="normal"


 OUTPUT CONTROL FOR STRESS PERIOD 4 IS REPEATED USING SETTINGS FROM A PREVIOUS STRESS PERIOD.


 STRESS PERIOD 4 IS TRANSIENT


 OPENED freyberg6.wel_stress_period_data_4.txt
 FILE TYPE:OPEN/CLOSE   UNIT 1066   STATUS:OLD                 
 FORMAT:FORMATTED              ACCESS:SEQUENTIAL          
 ACTION:READ                

 ---------------------------------------------------
  WEL NO.    LAYER    ROW     COL     STRESS RATE   
 ---------------------------------------------------
     1         3      10      17    -116.221368     
     2         3      12      14    -167.095016     
     3         3      21      15    -176.855078     
     4         3      27      11    -140.607327     
     5         3      30       7    -145.647113     
     6         3      35      13    -128.230281     
 ---------------------------------------------------



 REUSING GHBS FROM LAST STRESS PERIOD

 OPENED freyberg6.rch_recharge_4.txt
 FILE TYPE:OPEN/CLOSE   UNIT 1067   STATUS:OLD                 
 FORMAT:FORMATTED              ACCESS:SEQUENTIAL          
 ACTION:READ                


 OPENED freyberg6.sfr_perioddata_4.txt
 FILE TYPE:OPEN/CLOSE   UNIT 1068   STATUS:OLD                 
 FORMAT:FORMATTED              ACCESS:SEQUENTIAL          
 ACTION:READ                


 SFR PACKAGE (SFR_1) DATA FOR PERIOD      4
 ---------------------------------------------------------------
   NUMBER   KEYWORD                  VALUE 1         VALUE 2    
 ---------------------------------------------------------------
     1      INFLOW               137.29736234912                
 ---------------------------------------------------------------


 UBDSV1 SAVING     FLOW-JA-FACE ON UNIT   1052 AT TIME STEP      1, STRESS PERIOD      4
 UBDSV06 SAVING              WEL IN MODEL FREYBERG6        PACKAGE FREYBERG6       CONNECTED TO MODEL FREYBERG6        PACKAGE WEL-1            ON UNIT   1052 AT TIME STEP      1, STRESS PERIOD      4
 UBDSV06 SAVING              GHB IN MODEL FREYBERG6        PACKAGE FREYBERG6       CONNECTED TO MODEL FREYBERG6        PACKAGE GHB-1            ON UNIT   1052 AT TIME STEP      1, STRESS PERIOD      4
 UBDSV06 SAVING              RCH IN MODEL FREYBERG6        PACKAGE FREYBERG6       CONNECTED TO MODEL FREYBERG6        PACKAGE RCH-1            ON UNIT   1052 AT TIME STEP      1, STRESS PERIOD      4
 UBDSV06 SAVING              SFR IN MODEL FREYBERG6        PACKAGE FREYBERG6       CONNECTED TO MODEL FREYBERG6        PACKAGE SFR_1            ON UNIT   1052 AT TIME STEP      1, STRESS PERIOD      4

 WEL PACKAGE (WEL-1) FLOW RATES   PERIOD      4   STEP        1
 -----------------------------------------------
   NUMBER   CELLID                    RATE      
 -----------------------------------------------
     1      (3,10,17)            -116.22137     
     2      (3,12,14)            -167.09502     
     3      (3,21,15)            -176.85508     
     4      (3,27,11)            -140.60733     
     5      (3,30,7)             -145.64711     
     6      (3,35,13)            -128.23028     
 -----------------------------------------------




 GHB PACKAGE (GHB-1) FLOW RATES   PERIOD      4   STEP        1
 -----------------------------------------------
   NUMBER   CELLID                    RATE      
 -----------------------------------------------
     1      (1,40,6)             -39.467876     
     2      (1,40,7)             -45.074816     
     3      (1,40,8)             -8.8284671     
     4      (1,40,9)              31.371941     
     5      (1,40,10)             63.910312     
     6      (1,40,11)             12.202497     
     7      (1,40,12)            -63.229400     
     8      (1,40,13)            -60.512981     
     9      (1,40,14)            -61.227601     
     10     (1,40,15)            -66.705898     
     11     (2,40,6)             -53.308042     
     12     (2,40,7)             -55.161805     
     13     (2,40,8)             -57.491293     
     14     (2,40,9)             -61.904006     
     15     (2,40,10)            -65.865303     
     16     (2,40,11)            -65.465749     
     17     (2,40,12)            -25.054076     
     18     (2,40,13)            -60.907423     
     19     (2,40,14)            -61.795454     
     20     (2,40,15)            -67.521858     
     21     (3,40,6)             -24.531763     
     22     (3,40,7)             -47.344460     
     23     (3,40,8)             -58.440283     
     24     (3,40,9)             -62.166827     
     25     (3,40,10)            -65.846873     
     26     (3,40,11)            -66.279288     
     27     (3,40,12)            -64.440542     
     28     (3,40,13)            -62.137746     
     29     (3,40,14)            -63.234278     
     30     (3,40,15)            -69.537048     
 -----------------------------------------------




 HEAD WILL BE SAVED ON UNIT 1053 AT END OF TIME STEP    1, STRESS PERIOD    4


  SFR_1 BUDGET FOR ENTIRE MODEL AT END OF TIME STEP    1, STRESS PERIOD   4
  ------------------------------------------------------------------------------

     CUMULATIVE SFR_1      L**3       RATES FOR THIS TIME STEP      L**3/T
     ------------------                 ------------------------

           IN:                                      IN:
           ---                                      ---
                 GWF =      119429.6488                   GWF =        1437.8430
            RAINFALL =           0.0000              RAINFALL =           0.0000
         EVAPORATION =           0.0000           EVAPORATION =           0.0000
              RUNOFF =           0.0000                RUNOFF =           0.0000
          EXT-INFLOW =       12856.0560            EXT-INFLOW =         137.2974
         EXT-OUTFLOW =           0.0000           EXT-OUTFLOW =           0.0000
             STORAGE =           0.0000               STORAGE =           0.0000

            TOTAL IN =      132285.7048              TOTAL IN =        1575.1404

          OUT:                                     OUT:
          ----                                     ----
                 GWF =        3355.1334                   GWF =          28.4935
            RAINFALL =           0.0000              RAINFALL =           0.0000
         EVAPORATION =           0.0000           EVAPORATION =           0.0000
              RUNOFF =           0.0000                RUNOFF =           0.0000
          EXT-INFLOW =           0.0000            EXT-INFLOW =           0.0000
         EXT-OUTFLOW =      128930.5714           EXT-OUTFLOW =        1546.6468
             STORAGE =           0.0000               STORAGE =           0.0000

           TOTAL OUT =      132285.7048             TOTAL OUT =        1575.1404

            IN - OUT =       2.9104E-11              IN - OUT =           0.0000

 PERCENT DISCREPANCY =           0.00     PERCENT DISCREPANCY =           0.00



  VOLUME BUDGET FOR ENTIRE MODEL AT END OF TIME STEP    1, STRESS PERIOD   4
  ---------------------------------------------------------------------------------------------------

     CUMULATIVE VOLUME      L**3       RATES FOR THIS TIME STEP      L**3/T          PACKAGE NAME    
     ------------------                 ------------------------                     ----------------

           IN:                                      IN:
           ---                                      ---
              STO-SS =          66.0912                STO-SS =           0.1166     STORAGE         
              STO-SY =       42044.3862                STO-SY =          55.5836     STORAGE         
                 WEL =           0.0000                   WEL =           0.0000     WEL-1           
                 GHB =       10330.9528                   GHB =         107.4848     GHB-1           
                 RCH =      423255.4070                   RCH =        5227.5335     RCH-1           
                 SFR =        3352.2061                   SFR =          28.4327     SFR_1           

            TOTAL IN =      479049.0434              TOTAL IN =        5419.1511

          OUT:                                     OUT:
          ----                                     ----
              STO-SS =         300.5441                STO-SS =           2.5872     STORAGE         
              STO-SY =      174527.8186                STO-SY =        1597.7941     STORAGE         
                 WEL =       50953.4853                   WEL =         874.6562     WEL-1           
                 GHB =      133785.7124                   GHB =        1503.4812     GHB-1           
                 RCH =           0.0000                   RCH =           0.0000     RCH-1           
                 SFR =      119465.4295                   SFR =        1438.8124     SFR_1           

           TOTAL OUT =      479032.9900             TOTAL OUT =        5417.3311

            IN - OUT =          16.0534              IN - OUT =           1.8199

 PERCENT DISCREPANCY =           0.00     PERCENT DISCREPANCY =           0.03




         TIME SUMMARY AT END OF TIME STEP    1 IN STRESS PERIOD    4
                    SECONDS     MINUTES      HOURS       DAYS        YEARS
                    -----------------------------------------------------------
   TIME STEP LENGTH 2.67840E+06  44640.      744.00      31.000     8.48734E-02
 STRESS PERIOD TIME 2.67840E+06  44640.      744.00      31.000     8.48734E-02
         TOTAL TIME 7.94880E+06 1.32480E+05  2208.0      92.000     0.25188    


end timestep


start timestep kper="5" kstp="1" mode="normal"


 OUTPUT CONTROL FOR STRESS PERIOD 5 IS REPEATED USING SETTINGS FROM A PREVIOUS STRESS PERIOD.


 STRESS PERIOD 5 IS TRANSIENT


 OPENED freyberg6.wel_stress_period_data_5.txt
 FILE TYPE:OPEN/CLOSE   UNIT 1069   STATUS:OLD                 
 FORMAT:FORMATTED              ACCESS:SEQUENTIAL          
 ACTION:READ                

 ---------------------------------------------------
  WEL NO.    LAYER    ROW     COL     STRESS RATE   
 ---------------------------------------------------
     1         3      10      17    -245.766263     
     2         3      12      14    -218.637627     
     3         3      21      15    -262.771566     
     4         3      27      11    -179.506769     
     5         3      30       7    -266.995918     
     6         3      35      13    -219.278216     
 ---------------------------------------------------



 REUSING GHBS FROM LAST STRESS PERIOD

 OPENED freyberg6.rch_recharge_5.txt
 FILE TYPE:OPEN/CLOSE   UNIT 1070   STATUS:OLD                 
 FORMAT:FORMATTED              ACCESS:SEQUENTIAL          
 ACTION:READ                


 OPENED freyberg6.sfr_perioddata_5.txt
 FILE TYPE:OPEN/CLOSE   UNIT 1071   STATUS:OLD                 
 FORMAT:FORMATTED              ACCESS:SEQUENTIAL          
 ACTION:READ                


 SFR PACKAGE (SFR_1) DATA FOR PERIOD      5
 ---------------------------------------------------------------
   NUMBER   KEYWORD                  VALUE 1         VALUE 2    
 ---------------------------------------------------------------
     1      INFLOW               140.21034168365                
 ---------------------------------------------------------------


 UBDSV1 SAVING     FLOW-JA-FACE ON UNIT   1052 AT TIME STEP      1, STRESS PERIOD      5
 UBDSV06 SAVING              WEL IN MODEL FREYBERG6        PACKAGE FREYBERG6       CONNECTED TO MODEL FREYBERG6        PACKAGE WEL-1            ON UNIT   1052 AT TIME STEP      1, STRESS PERIOD      5
 UBDSV06 SAVING              GHB IN MODEL FREYBERG6        PACKAGE FREYBERG6       CONNECTED TO MODEL FREYBERG6        PACKAGE GHB-1            ON UNIT   1052 AT TIME STEP      1, STRESS PERIOD      5
 UBDSV06 SAVING              RCH IN MODEL FREYBERG6        PACKAGE FREYBERG6       CONNECTED TO MODEL FREYBERG6        PACKAGE RCH-1            ON UNIT   1052 AT TIME STEP      1, STRESS PERIOD      5
 UBDSV06 SAVING              SFR IN MODEL FREYBERG6        PACKAGE FREYBERG6       CONNECTED TO MODEL FREYBERG6        PACKAGE SFR_1            ON UNIT   1052 AT TIME STEP      1, STRESS PERIOD      5

 WEL PACKAGE (WEL-1) FLOW RATES   PERIOD      5   STEP        1
 -----------------------------------------------
   NUMBER   CELLID                    RATE      
 -----------------------------------------------
     1      (3,10,17)            -245.76626     
     2      (3,12,14)            -218.63763     
     3      (3,21,15)            -262.77157     
     4      (3,27,11)            -179.50677     
     5      (3,30,7)             -266.99592     
     6      (3,35,13)            -219.27822     
 -----------------------------------------------




 GHB PACKAGE (GHB-1) FLOW RATES   PERIOD      5   STEP        1
 -----------------------------------------------
   NUMBER   CELLID                    RATE      
 -----------------------------------------------
     1      (1,40,6)             -38.768342     
     2      (1,40,7)             -44.179681     
     3      (1,40,8)             -8.1837729     
     4      (1,40,9)              32.436005     
     5      (1,40,10)             65.260214     
     6      (1,40,11)             13.786669     
     7      (1,40,12)            -61.458989     
     8      (1,40,13)            -58.365234     
     9      (1,40,14)            -58.831683     
     10     (1,40,15)            -63.704135     
     11     (2,40,6)             -52.363818     
     12     (2,40,7)             -54.124102     
     13     (2,40,8)             -56.377469     
     14     (2,40,9)             -60.659765     
     15     (2,40,10)            -64.489812     
     16     (2,40,11)            -63.874613     
     17     (2,40,12)            -23.270188     
     18     (2,40,13)            -58.764349     
     19     (2,40,14)            -59.383261     
     20     (2,40,15)            -64.538259     
     21     (3,40,6)             -23.549728     
     22     (3,40,7)             -46.274894     
     23     (3,40,8)             -57.287130     
     24     (3,40,9)             -60.890271     
     25     (3,40,10)            -64.426377     
     26     (3,40,11)            -64.651920     
     27     (3,40,12)            -62.618396     
     28     (3,40,13)            -59.977726     
     29     (3,40,14)            -60.772915     
     30     (3,40,15)            -66.524927     
 -----------------------------------------------




 HEAD WILL BE SAVED ON UNIT 1053 AT END OF TIME STEP    1, STRESS PERIOD    5


  SFR_1 BUDGET FOR ENTIRE MODEL AT END OF TIME STEP    1, STRESS PERIOD   5
  ------------------------------------------------------------------------------

     CUMULATIVE SFR_1      L**3       RATES FOR THIS TIME STEP      L**3/T
     ------------------                 ------------------------

           IN:                                      IN:
           ---                                      ---
[...]

           TOTAL OUT =     2727660.6310             TOTAL OUT =        2650.4401

            IN - OUT =        -948.6259              IN - OUT =          -5.8053

 PERCENT DISCREPANCY =          -0.03     PERCENT DISCREPANCY =          -0.22




         TIME SUMMARY AT END OF TIME STEP    1 IN STRESS PERIOD   23
                    SECONDS     MINUTES      HOURS       DAYS        YEARS
                    -----------------------------------------------------------
   TIME STEP LENGTH 2.67840E+06  44640.      744.00      31.000     8.48734E-02
 STRESS PERIOD TIME 2.67840E+06  44640.      744.00      31.000     8.48734E-02
         TOTAL TIME 5.79744E+07 9.66240E+05  16104.      671.00      1.8371    


end timestep


start timestep kper="24" kstp="1" mode="normal"


 OUTPUT CONTROL FOR STRESS PERIOD 24 IS REPEATED USING SETTINGS FROM A PREVIOUS STRESS PERIOD.


 STRESS PERIOD 24 IS TRANSIENT


 OPENED freyberg6.wel_stress_period_data_24.txt
 FILE TYPE:OPEN/CLOSE   UNIT 1126   STATUS:OLD                 
 FORMAT:FORMATTED              ACCESS:SEQUENTIAL          
 ACTION:READ                

 ---------------------------------------------------
  WEL NO.    LAYER    ROW     COL     STRESS RATE   
 ---------------------------------------------------
     1         3      10      17    -97.4163156     
     2         3      12      14    -111.274306     
     3         3      21      15    -120.060984     
     4         3      27      11    -104.707720     
     5         3      30       7    -113.480939     
     6         3      35      13    -101.484888     
 ---------------------------------------------------



 REUSING GHBS FROM LAST STRESS PERIOD

 OPENED freyberg6.rch_recharge_24.txt
 FILE TYPE:OPEN/CLOSE   UNIT 1127   STATUS:OLD                 
 FORMAT:FORMATTED              ACCESS:SEQUENTIAL          
 ACTION:READ                


 OPENED freyberg6.sfr_perioddata_24.txt
 FILE TYPE:OPEN/CLOSE   UNIT 1128   STATUS:OLD                 
 FORMAT:FORMATTED              ACCESS:SEQUENTIAL          
 ACTION:READ                


 SFR PACKAGE (SFR_1) DATA FOR PERIOD     24
 ---------------------------------------------------------------
   NUMBER   KEYWORD                  VALUE 1         VALUE 2    
 ---------------------------------------------------------------
     1      INFLOW               169.93746453213                
 ---------------------------------------------------------------


 UBDSV1 SAVING     FLOW-JA-FACE ON UNIT   1052 AT TIME STEP      1, STRESS PERIOD     24
 UBDSV06 SAVING              WEL IN MODEL FREYBERG6        PACKAGE FREYBERG6       CONNECTED TO MODEL FREYBERG6        PACKAGE WEL-1            ON UNIT   1052 AT TIME STEP      1, STRESS PERIOD     24
 UBDSV06 SAVING              GHB IN MODEL FREYBERG6        PACKAGE FREYBERG6       CONNECTED TO MODEL FREYBERG6        PACKAGE GHB-1            ON UNIT   1052 AT TIME STEP      1, STRESS PERIOD     24
 UBDSV06 SAVING              RCH IN MODEL FREYBERG6        PACKAGE FREYBERG6       CONNECTED TO MODEL FREYBERG6        PACKAGE RCH-1            ON UNIT   1052 AT TIME STEP      1, STRESS PERIOD     24
 UBDSV06 SAVING              SFR IN MODEL FREYBERG6        PACKAGE FREYBERG6       CONNECTED TO MODEL FREYBERG6        PACKAGE SFR_1            ON UNIT   1052 AT TIME STEP      1, STRESS PERIOD     24

 WEL PACKAGE (WEL-1) FLOW RATES   PERIOD     24   STEP        1
 -----------------------------------------------
   NUMBER   CELLID                    RATE      
 -----------------------------------------------
     1      (3,10,17)            -97.416316     
     2      (3,12,14)            -111.27431     
     3      (3,21,15)            -120.06098     
     4      (3,27,11)            -104.70772     
     5      (3,30,7)             -113.48094     
     6      (3,35,13)            -101.48489     
 -----------------------------------------------




 GHB PACKAGE (GHB-1) FLOW RATES   PERIOD     24   STEP        1
 -----------------------------------------------
   NUMBER   CELLID                    RATE      
 -----------------------------------------------
     1      (1,40,6)             -30.519214     
     2      (1,40,7)             -34.224461     
     3      (1,40,8)             -1.3967137     
     4      (1,40,9)              42.607958     
     5      (1,40,10)             77.531598     
     6      (1,40,11)             26.148156     
     7      (1,40,12)            -48.914700     
     8      (1,40,13)            -46.210047     
     9      (1,40,14)            -46.753158     
     10     (1,40,15)            -51.254643     
     11     (2,40,6)             -41.238136     
     12     (2,40,7)             -42.619330     
     13     (2,40,8)             -44.793088     
     14     (2,40,9)             -48.869827     
     15     (2,40,10)            -52.154945     
     16     (2,40,11)            -51.379311     
     17     (2,40,12)            -10.666645     
     18     (2,40,13)            -46.527815     
     19     (2,40,14)            -47.206055     
     20     (2,40,15)            -51.939135     
     21     (3,40,6)             -11.988747     
     22     (3,40,7)             -34.460812     
     23     (3,40,8)             -45.457175     
     24     (3,40,9)             -48.916580     
     25     (3,40,10)            -51.893306     
     26     (3,40,11)            -51.773405     
     27     (3,40,12)            -49.798021     
     28     (3,40,13)            -47.491201     
     29     (3,40,14)            -48.327496     
     30     (3,40,15)            -53.552007     
 -----------------------------------------------




 HEAD WILL BE SAVED ON UNIT 1053 AT END OF TIME STEP    1, STRESS PERIOD   24


  SFR_1 BUDGET FOR ENTIRE MODEL AT END OF TIME STEP    1, STRESS PERIOD  24
  ------------------------------------------------------------------------------

     CUMULATIVE SFR_1      L**3       RATES FOR THIS TIME STEP      L**3/T
     ------------------                 ------------------------

           IN:                                      IN:
           ---                                      ---
                 GWF =      615537.5452                   GWF =         446.6795
            RAINFALL =           0.0000              RAINFALL =           0.0000
         EVAPORATION =           0.0000           EVAPORATION =           0.0000
              RUNOFF =           0.0000                RUNOFF =           0.0000
          EXT-INFLOW =       68314.7964            EXT-INFLOW =         169.9375
         EXT-OUTFLOW =           0.0000           EXT-OUTFLOW =           0.0000
             STORAGE =           0.0000               STORAGE =           0.0000

            TOTAL IN =      683852.3416              TOTAL IN =         616.6170

          OUT:                                     OUT:
          ----                                     ----
                 GWF =       39251.7794                   GWF =          89.7414
            RAINFALL =           0.0000              RAINFALL =           0.0000
         EVAPORATION =           0.0000           EVAPORATION =           0.0000
              RUNOFF =           0.0000                RUNOFF =           0.0000
          EXT-INFLOW =           0.0000            EXT-INFLOW =           0.0000
         EXT-OUTFLOW =      644600.5622           EXT-OUTFLOW =         526.8756
             STORAGE =           0.0000               STORAGE =           0.0000

           TOTAL OUT =      683852.3416             TOTAL OUT =         616.6170

            IN - OUT =       1.1642E-10              IN - OUT =           0.0000

 PERCENT DISCREPANCY =           0.00     PERCENT DISCREPANCY =           0.00



  VOLUME BUDGET FOR ENTIRE MODEL AT END OF TIME STEP    1, STRESS PERIOD  24
  ---------------------------------------------------------------------------------------------------

     CUMULATIVE VOLUME      L**3       RATES FOR THIS TIME STEP      L**3/T          PACKAGE NAME    
     ------------------                 ------------------------                     ----------------

           IN:                                      IN:
           ---                                      ---
              STO-SS =        1281.1994                STO-SS =           0.6698     STORAGE         
              STO-SY =      790661.0625                STO-SY =         402.7390     STORAGE         
                 WEL =           0.0000                   WEL =           0.0000     WEL-1           
                 GHB =       88826.9832                   GHB =         146.2877     GHB-1           
                 RCH =     1884136.1211                   RCH =        1941.8620     RCH-1           
                 SFR =       39237.7857                   SFR =          89.4798     SFR_1           

            TOTAL IN =     2804143.1519              TOTAL IN =        2581.0382

          OUT:                                     OUT:
          ----                                     ----
              STO-SS =         864.8416                STO-SS =           0.5952     STORAGE         
              STO-SY =      501388.0807                STO-SY =         340.6718     STORAGE         
                 WEL =      761885.8792                   WEL =         648.4252     WEL-1           
                 GHB =      925276.9561                   GHB =        1140.3260     GHB-1           
                 RCH =           0.0000                   RCH =           0.0000     RCH-1           
                 SFR =      615595.5959                   SFR =         448.3394     SFR_1           

           TOTAL OUT =     2805011.3536             TOTAL OUT =        2578.3574

            IN - OUT =        -868.2017              IN - OUT =           2.6808

 PERCENT DISCREPANCY =          -0.03     PERCENT DISCREPANCY =           0.10




         TIME SUMMARY AT END OF TIME STEP    1 IN STRESS PERIOD   24
                    SECONDS     MINUTES      HOURS       DAYS        YEARS
                    -----------------------------------------------------------
   TIME STEP LENGTH 2.59200E+06  43200.      720.00      30.000     8.21355E-02
 STRESS PERIOD TIME 2.59200E+06  43200.      720.00      30.000     8.21355E-02
         TOTAL TIME 6.05664E+07 1.00944E+06  16824.      701.00      1.9192    


end timestep


start timestep kper="25" kstp="1" mode="normal"


 OUTPUT CONTROL FOR STRESS PERIOD 25 IS REPEATED USING SETTINGS FROM A PREVIOUS STRESS PERIOD.


 STRESS PERIOD 25 IS TRANSIENT


 OPENED freyberg6.wel_stress_period_data_25.txt
 FILE TYPE:OPEN/CLOSE   UNIT 1129   STATUS:OLD                 
 FORMAT:FORMATTED              ACCESS:SEQUENTIAL          
 ACTION:READ                

 ---------------------------------------------------
  WEL NO.    LAYER    ROW     COL     STRESS RATE   
 ---------------------------------------------------
     1         3      10      17    -64.7337019     
     2         3      12      14    -58.4425101     
     3         3      21      15    -69.8401403     
     4         3      27      11    -73.4282630     
     5         3      30       7    -86.5208806     
     6         3      35      13    -65.4383435     
 ---------------------------------------------------



 REUSING GHBS FROM LAST STRESS PERIOD

 OPENED freyberg6.rch_recharge_25.txt
 FILE TYPE:OPEN/CLOSE   UNIT 1130   STATUS:OLD                 
 FORMAT:FORMATTED              ACCESS:SEQUENTIAL          
 ACTION:READ                


 OPENED freyberg6.sfr_perioddata_25.txt
 FILE TYPE:OPEN/CLOSE   UNIT 1131   STATUS:OLD                 
 FORMAT:FORMATTED              ACCESS:SEQUENTIAL          
 ACTION:READ                


 SFR PACKAGE (SFR_1) DATA FOR PERIOD     25
 ---------------------------------------------------------------
   NUMBER   KEYWORD                  VALUE 1         VALUE 2    
 ---------------------------------------------------------------
     1      INFLOW               192.05631099627                
 ---------------------------------------------------------------


 UBDSV1 SAVING     FLOW-JA-FACE ON UNIT   1052 AT TIME STEP      1, STRESS PERIOD     25
 UBDSV06 SAVING              WEL IN MODEL FREYBERG6        PACKAGE FREYBERG6       CONNECTED TO MODEL FREYBERG6        PACKAGE WEL-1            ON UNIT   1052 AT TIME STEP      1, STRESS PERIOD     25
 UBDSV06 SAVING              GHB IN MODEL FREYBERG6        PACKAGE FREYBERG6       CONNECTED TO MODEL FREYBERG6        PACKAGE GHB-1            ON UNIT   1052 AT TIME STEP      1, STRESS PERIOD     25
 UBDSV06 SAVING              RCH IN MODEL FREYBERG6        PACKAGE FREYBERG6       CONNECTED TO MODEL FREYBERG6        PACKAGE RCH-1            ON UNIT   1052 AT TIME STEP      1, STRESS PERIOD     25
 UBDSV06 SAVING              SFR IN MODEL FREYBERG6        PACKAGE FREYBERG6       CONNECTED TO MODEL FREYBERG6        PACKAGE SFR_1            ON UNIT   1052 AT TIME STEP      1, STRESS PERIOD     25

 WEL PACKAGE (WEL-1) FLOW RATES   PERIOD     25   STEP        1
 -----------------------------------------------
   NUMBER   CELLID                    RATE      
 -----------------------------------------------
     1      (3,10,17)            -64.733702     
     2      (3,12,14)            -58.442510     
     3      (3,21,15)            -69.840140     
     4      (3,27,11)            -73.428263     
     5      (3,30,7)             -86.520881     
     6      (3,35,13)            -65.438344     
 -----------------------------------------------




 GHB PACKAGE (GHB-1) FLOW RATES   PERIOD     25   STEP        1
 -----------------------------------------------
   NUMBER   CELLID                    RATE      
 -----------------------------------------------
     1      (1,40,6)             -30.909558     
     2      (1,40,7)             -34.712958     
     3      (1,40,8)             -1.6482438     
     4      (1,40,9)              42.338351     
     5      (1,40,10)             77.360943     
     6      (1,40,11)             26.064805     
     7      (1,40,12)            -48.950115     
     8      (1,40,13)            -46.131333     
     9      (1,40,14)            -46.676576     
     10     (1,40,15)            -51.209175     
     11     (2,40,6)             -41.756702     
     12     (2,40,7)             -43.160474     
     13     (2,40,8)             -45.217206     
     14     (2,40,9)             -49.176383     
     15     (2,40,10)            -52.331032     
     16     (2,40,11)            -51.474491     
     17     (2,40,12)            -10.707930     
     18     (2,40,13)            -46.467138     
     19     (2,40,14)            -47.147609     
     20     (2,40,15)            -51.902171     
     21     (3,40,6)             -12.519050     
     22     (3,40,7)             -34.988215     
     23     (3,40,8)             -45.884224     
     24     (3,40,9)             -49.220928     
     25     (3,40,10)            -52.077826     
     26     (3,40,11)            -51.885115     
     27     (3,40,12)            -49.848530     
     28     (3,40,13)            -47.455446     
     29     (3,40,14)            -48.289507     
     30     (3,40,15)            -53.524276     
 -----------------------------------------------




 HEAD WILL BE SAVED ON UNIT 1053 AT END OF TIME STEP    1, STRESS PERIOD   25


  SFR_1 BUDGET FOR ENTIRE MODEL AT END OF TIME STEP    1, STRESS PERIOD  25
  ------------------------------------------------------------------------------

     CUMULATIVE SFR_1      L**3       RATES FOR THIS TIME STEP      L**3/T
     ------------------                 ------------------------

           IN:                                      IN:
           ---                                      ---
                 GWF =      630377.1982                   GWF =         478.6985
            RAINFALL =           0.0000              RAINFALL =           0.0000
         EVAPORATION =           0.0000           EVAPORATION =           0.0000
              RUNOFF =           0.0000                RUNOFF =           0.0000
          EXT-INFLOW =       74268.5420            EXT-INFLOW =         192.0563
         EXT-OUTFLOW =           0.0000           EXT-OUTFLOW =           0.0000
             STORAGE =           0.0000               STORAGE =           0.0000

            TOTAL IN =      704645.7403              TOTAL IN =         670.7548

          OUT:                                     OUT:
          ----                                     ----
                 GWF =       42113.6013                   GWF =          92.3168
            RAINFALL =           0.0000              RAINFALL =           0.0000
         EVAPORATION =           0.0000           EVAPORATION =           0.0000
              RUNOFF =           0.0000                RUNOFF =           0.0000
          EXT-INFLOW =           0.0000            EXT-INFLOW =           0.0000
         EXT-OUTFLOW =      662532.1390           EXT-OUTFLOW =         578.4380
             STORAGE =           0.0000               STORAGE =           0.0000

           TOTAL OUT =      704645.7403             TOTAL OUT =         670.7548

            IN - OUT =       1.1642E-10              IN - OUT =      -2.2737E-13

 PERCENT DISCREPANCY =           0.00     PERCENT DISCREPANCY =          -0.00



  VOLUME BUDGET FOR ENTIRE MODEL AT END OF TIME STEP    1, STRESS PERIOD  25
  ---------------------------------------------------------------------------------------------------

     CUMULATIVE VOLUME      L**3       RATES FOR THIS TIME STEP      L**3/T          PACKAGE NAME    
     ------------------                 ------------------------                     ----------------

           IN:                                      IN:
           ---                                      ---
              STO-SS =        1294.3191                STO-SS =           0.4232     STORAGE         
              STO-SY =      797290.2513                STO-SY =         213.8448     STORAGE         
                 WEL =           0.0000                   WEL =           0.0000     WEL-1           
                 GHB =       93345.6702                   GHB =         145.7641     GHB-1           
                 RCH =     1943670.1593                   RCH =        1920.4528     RCH-1           
                 SFR =       42099.4818                   SFR =          92.3128     SFR_1           

            TOTAL IN =     2877699.8817              TOTAL IN =        2372.7977

          OUT:                                     OUT:
          ----                                     ----
              STO-SS =         884.3472                STO-SS =           0.6292     STORAGE         
              STO-SY =      511472.1231                STO-SY =         325.2917     STORAGE         
                 WEL =      774856.3983                   WEL =         418.4038     WEL-1           
                 GHB =      960780.3946                   GHB =        1145.2722     GHB-1           
                 RCH =           0.0000                   RCH =           0.0000     RCH-1           
                 SFR =      630434.8271                   SFR =         478.6849     SFR_1           

           TOTAL OUT =     2878428.0903             TOTAL OUT =        2368.2818

            IN - OUT =        -728.2086              IN - OUT =           4.5159

 PERCENT DISCREPANCY =          -0.03     PERCENT DISCREPANCY =           0.19




         TIME SUMMARY AT END OF TIME STEP    1 IN STRESS PERIOD   25
                    SECONDS     MINUTES      HOURS       DAYS        YEARS
                    -----------------------------------------------------------
   TIME STEP LENGTH 2.67840E+06  44640.      744.00      31.000     8.48734E-02
 STRESS PERIOD TIME 2.67840E+06  44640.      744.00      31.000     8.48734E-02
         TOTAL TIME 6.32448E+07 1.05408E+06  17568.      732.00      2.0041    


end timestep

