                                   MODFLOW 6
                U.S. GEOLOGICAL SURVEY MODULAR HYDROLOGIC MODEL
                            VERSION 6.2.2 07/30/2021

   MODFLOW 6 compiled Jul 31 2021 14:57:11 with IFORT compiler (ver. 20.21.2)

This software has been approved for release by the U.S. Geological 
Survey (USGS). Although the software has been subjected to rigorous 
review, the USGS reserves the right to update the software as needed 
pursuant to further analysis and review. No warranty, expressed or 
implied, is made by the USGS or the U.S. Government as to the 
functionality of the software and related material nor shall the 
fact of release constitute any such warranty. Furthermore, the 
software is released on condition that neither the USGS nor the U.S. 
Government shall be held liable for any damages resulting from its 
authorized or unauthorized use. Also refer to the USGS Water 
Resources Software User Rights Notice for complete use, copyright, 
and distribution information.


System command used to initiate simulation:
mf6.exe

MODFLOW was compiled using uniform precision.

Real Variables
  KIND: 8
  TINY (smallest non-zero value):    2.225074-308
  HUGE (largest value):    1.797693+308
  PRECISION: 15
  BIT SIZE: 64

Integer Variables
  KIND: 4
  HUGE (largest value): 2147483647
  BIT SIZE: 32

Long Integer Variables
  KIND: 8
  HUGE (largest value): 9223372036854775807
  BIT SIZE: 64

Logical Variables
  KIND: 4
  BIT SIZE: 32
 

 OPENED mfsim.nam
 FILE TYPE:NAM   UNIT 1001   STATUS:OLD                 
 FORMAT:FORMATTED              ACCESS:SEQUENTIAL          
 ACTION:READ                

 # File generated by Flopy version 3.3.4 on 03/01/2022 at 17:01:21.

 READING SIMULATION OPTIONS
    SIMULATION WILL CONTINUE EVEN IF THERE IS NONCONVERGENCE.
 END OF SIMULATION OPTIONS

 READING SIMULATION TIMING

 OPENED freyberg6.tdis
 FILE TYPE:TDIS   UNIT 1002   STATUS:OLD                 
 FORMAT:FORMATTED              ACCESS:SEQUENTIAL          
 ACTION:READ                


 TDIS -- TEMPORAL DISCRETIZATION PACKAGE,
 VERSION 1 : 11/13/2014 - INPUT READ FROM UNIT 1002
 # File generated by Flopy version 3.3.4 on 03/01/2022 at 17:01:21.
 PROCESSING TDIS OPTIONS
    SIMULATION TIME UNIT IS DAYS
 END OF TDIS OPTIONS
 PROCESSING TDIS DIMENSIONS
   25 STRESS PERIOD(S) IN SIMULATION
 END OF TDIS DIMENSIONS
 PROCESSING TDIS PERIODDATA


 STRESS PERIOD     LENGTH       TIME STEPS     MULTIPLIER FOR DELT
 ----------------------------------------------------------------------------
        1         1.000000          1                    1.000
        2         31.00000          1                    1.000
        3         29.00000          1                    1.000
        4         31.00000          1                    1.000
        5         30.00000          1                    1.000
        6         31.00000          1                    1.000
        7         30.00000          1                    1.000
        8         31.00000          1                    1.000
        9         31.00000          1                    1.000
       10         30.00000          1                    1.000
       11         31.00000          1                    1.000
       12         30.00000          1                    1.000
       13         31.00000          1                    1.000
       14         31.00000          1                    1.000
       15         28.00000          1                    1.000
       16         31.00000          1                    1.000
       17         30.00000          1                    1.000
       18         31.00000          1                    1.000
       19         30.00000          1                    1.000
       20         31.00000          1                    1.000
       21         31.00000          1                    1.000
       22         30.00000          1                    1.000
       23         31.00000          1                    1.000
       24         30.00000          1                    1.000
       25         31.00000          1                    1.000
 END OF TDIS PERIODDATA
 END OF SIMULATION TIMING

 READING SIMULATION MODELS
    GWF6 model FREYBERG6 will be created as model 1
 END OF SIMULATION MODELS

 READING SIMULATION EXCHANGES
 END OF SIMULATION EXCHANGES

 READING SOLUTIONGROUP

 Creating solution: SLN_1           

 OPENED freyberg6.ims
 FILE TYPE:IMS   UNIT 1015   STATUS:OLD                 
 FORMAT:FORMATTED              ACCESS:SEQUENTIAL          
 ACTION:READ                

 END OF SIMULATION SOLUTIONGROUP

 IMS -- ITERATIVE MODEL SOLUTION PACKAGE, VERSION 6, 4/28/2017
         INPUT READ FROM UNIT 1015
 # File generated by Flopy version 3.3.4 on 03/01/2022 at 17:01:21.

 PROCESSING IMS OPTIONS
 SIMPLE OPTION:
 DEFAULT SOLVER INPUT VALUES FOR FAST SOLUTIONS
 END OF IMS OPTIONS

 PROCESSING IMS NONLINEAR
 END OF IMS NONLINEAR DATA
 **UNDER-RELAXATION WILL BE USED***
 
 ***IMS LINEAR SOLVER WILL BE USED***

 IMSLINEAR -- UNSTRUCTURED LINEAR SOLUTION PACKAGE, VERSION 8, 04/28/2017

 PROCESSING LINEAR DATA
 END OF LINEAR DATA
 
 OUTER ITERATION CONVERGENCE CRITERION    (DVCLOSE) =    0.100000E-02
 MAXIMUM NUMBER OF OUTER ITERATIONS        (MXITER) = 100
 SOLVER PRINTOUT INDEX                     (IPRIMS) = 1
 NONLINEAR ITERATION METHOD            (NONLINMETH) = 3
 LINEAR SOLUTION METHOD                   (LINMETH) = 1
 UNDER-RELAXATION WEIGHT REDUCTION FACTOR   (THETA) =    0.850000E+00
 UNDER-RELAXATION WEIGHT INCREASE INCREMENT (KAPPA) =    0.100000E-04
 UNDER-RELAXATION PREVIOUS HISTORY FACTOR   (GAMMA) =    0.000000E+00
 UNDER-RELAXATION MOMENTUM TERM         (AMOMENTUM) =    0.100000E+00
 MAXIMUM NUMBER OF BACKTRACKS            (NUMTRACK) = 50
 BACKTRACKING TOLERANCE FACTOR               (BTOL) =    0.110000E+01
 BACKTRACKING REDUCTION FACTOR             (BREDUC) =    0.700000E+00
 BACKTRACKING RESIDUAL LIMIT              (RES_LIM) =    0.100000E+03

       SOLUTION BY THE BICONJUGATE-GRADIENT STABILIZED METHOD
 ------------------------------------------------------------------
 MAXIMUM OF 100 CALLS OF SOLUTION ROUTINE
 MAXIMUM OF 50 INTERNAL ITERATIONS PER CALL TO SOLUTION ROUTINE
 LINEAR ACCELERATION METHOD            = BCGS      
 MATRIX PRECONDITIONING TYPE           = INCOMPLETE LUT      
 MATRIX SCALING APPROACH               = NO SCALING          
 MATRIX REORDERING APPROACH            = RCM ORDERING             
 NUMBER OF ORTHOGONALIZATIONS          = 2
 HEAD CHANGE CRITERION FOR CLOSURE     =    0.10000E-03
 RESIDUAL CHANGE CRITERION FOR CLOSURE =    0.10000E+00
 RESIDUAL CONVERGENCE OPTION           = 0
 RESIDUAL CONVERGENCE NORM             = INFINITY NORM   
 RELAXATION FACTOR                     =    0.00000E+00
 NUMBER OF LEVELS                      =              1
 DROP TOLERANCE                        =    0.10000E-02


 
    Solving:  Stress period:     1    Time step:     1
 
1
                            STRESS PERIOD NO. 1, LENGTH =   1.000000    
                            -----------------------------------------------
                            NUMBER OF TIME STEPS = 1
                            MULTIPLIER FOR DELT =     1.000
                            INITIAL TIME STEP SIZE =   1.000000    



 PSEUDO-TRANSIENT CONTINUATION WILL BE APPLIED TO MODEL 1 ("FREYBERG6") DURING THIS TIME STEP

 SLN_1 OUTER ITERATION SUMMARY
 ----------------------------------------------------------------------------------------------------------------------------------------------------------------
                                OUTER      INNER  BACKTRACK  BACKTRACK        INCOMING        OUTGOING                    STEP   MAXIMUM CHANGE MODEL-(CELLID) OR
 OUTER ITERATION STEP       ITERATION  ITERATION       FLAG ITERATIONS        RESIDUAL        RESIDUAL  MAXIMUM CHANGE SUCCESS             MODEL-PACKAGE-(NUMBER)
 ----------------------------------------------------------------------------------------------------------------------------------------------------------------
 Backtracking                       1                     0          0       524102.20       524102.20                       *                                   
 Model                              1         18                                                             432.33387                            1_GWF-(3,40,16)
 Backtracking                       2                     0          0       176152.60       176152.60                       *                                   
 Model                              2         22                                                             563.00689                            1_GWF-(1,40,16)
 Backtracking                       3                     0          0       36740.252       36740.252                       *                                   
 Model                              3         43                                                             219.61314                            1_GWF-(1,40,16)
 Backtracking                       4                     0          0       10347.205       10347.205                       *                                   
 Model                              4         50                                                             31.270516                            1_GWF-(1,40,16)
 Backtracking                       5                     0          0       3197.2046       3197.2046                       *                                   
 Model                              5         50                                                             7.5238201                            1_GWF-(1,39,16)
 Backtracking                       6                     0          0       1025.4913       1025.4913                       *                                   
 Model                              6         50                                                            -1.4925965                            1_GWF-(1,40,16)
 Backtracking                       7                     0          0       730.87211       730.87211                       *                                   
 Model                              7         50                                                           -0.61860809                             1_GWF-(1,14,1)
 Backtracking                       8                     0          0       305.59586       305.59586                       *                                   
 Model                              8         50                                                           -0.14123728                              1_GWF-(1,1,7)
 Backtracking                       9                     0          0       92.973785       92.973785                       *                                   
 Model                              9         14                                                       -3.25041189E-02                             1_GWF-(2,37,6)
 Backtracking                      10                     0          0       25.784344       25.784344                       *                                   
 Model                             10         17                                                       -1.63469475E-02                             1_GWF-(2,37,6)
 Backtracking                      11                     0          0       12.153913       12.153913                       *                                   
 Model                             11          7                                                       -5.03723952E-03                             1_GWF-(2,37,6)
 Backtracking                      12                     0          0       4.3574783       4.3574783                       *                                   
 Model                             12         18                                                       -4.68143724E-03                             1_GWF-(2,37,6)
 Backtracking                      13                     0          0       2.0489062       2.0489062                       *                                   
 Model                             13          5                                                       -1.06880638E-03                             1_GWF-(2,37,6)
 Backtracking                      14                     0          0      0.76226516      0.76226516                       *                                   
 Model                             14          3                                                       -2.91169382E-04       *                     1_GWF-(2,37,6)
 ----------------------------------------------------------------------------------------------------------------------------------------------------------------


 14 CALLS TO NUMERICAL SOLUTION IN TIME STEP 1 STRESS PERIOD 1
 397 TOTAL ITERATIONS
 
    Solving:  Stress period:     2    Time step:     1
 
1
                            STRESS PERIOD NO. 2, LENGTH =   31.00000    
                            -----------------------------------------------
                            NUMBER OF TIME STEPS = 1
                            MULTIPLIER FOR DELT =     1.000
                            INITIAL TIME STEP SIZE =   31.00000    

 SLN_1 OUTER ITERATION SUMMARY
 ----------------------------------------------------------------------------------------------------------------------------------------------------------------
                                OUTER      INNER  BACKTRACK  BACKTRACK        INCOMING        OUTGOING                    STEP   MAXIMUM CHANGE MODEL-(CELLID) OR
 OUTER ITERATION STEP       ITERATION  ITERATION       FLAG ITERATIONS        RESIDUAL        RESIDUAL  MAXIMUM CHANGE SUCCESS             MODEL-PACKAGE-(NUMBER)
 ----------------------------------------------------------------------------------------------------------------------------------------------------------------
 Backtracking                       1                     0          0       276.37973       276.37973                       *                                   
 Model                              1         33                                                            0.33387081                             1_GWF-(3,30,7)
 Backtracking                       2                     0          0       6.7293571       6.7293571                       *                                   
 Model                              2         16                                                        6.17112597E-03                            1_GWF-(1,39,16)
 Backtracking                       3                     0          0      0.37298038      0.37298038                       *                                   
 Model                              3          6                                                        5.13114702E-04       *                    1_GWF-(2,32,20)
 ----------------------------------------------------------------------------------------------------------------------------------------------------------------


 3 CALLS TO NUMERICAL SOLUTION IN TIME STEP 1 STRESS PERIOD 2
 55 TOTAL ITERATIONS
 
    Solving:  Stress period:     3    Time step:     1
 
1
                            STRESS PERIOD NO. 3, LENGTH =   29.00000    
                            -----------------------------------------------
                            NUMBER OF TIME STEPS = 1
                            MULTIPLIER FOR DELT =     1.000
                            INITIAL TIME STEP SIZE =   29.00000    

 SLN_1 OUTER ITERATION SUMMARY
 ----------------------------------------------------------------------------------------------------------------------------------------------------------------
                                OUTER      INNER  BACKTRACK  BACKTRACK        INCOMING        OUTGOING                    STEP   MAXIMUM CHANGE MODEL-(CELLID) OR
 OUTER ITERATION STEP       ITERATION  ITERATION       FLAG ITERATIONS        RESIDUAL        RESIDUAL  MAXIMUM CHANGE SUCCESS             MODEL-PACKAGE-(NUMBER)
 ----------------------------------------------------------------------------------------------------------------------------------------------------------------
 Backtracking                       1                     0          0       53.064231       53.064231                       *                                   
 Model                              1         18                                                            0.11203949                             1_GWF-(1,29,8)
 Backtracking                       2                     0          0       3.8219605       3.8219605                       *                                   
 Model                              2         12                                                        3.74711875E-03                             1_GWF-(3,24,1)
 Backtracking                       3                     0          0      0.22943492      0.22943492                       *                                   
 Model                              3          1                                                        5.19636582E-05       *                    1_GWF-(1,40,16)
 ----------------------------------------------------------------------------------------------------------------------------------------------------------------


 3 CALLS TO NUMERICAL SOLUTION IN TIME STEP 1 STRESS PERIOD 3
 31 TOTAL ITERATIONS
 
    Solving:  Stress period:     4    Time step:     1
 
1
                            STRESS PERIOD NO. 4, LENGTH =   31.00000    
                            -----------------------------------------------
                            NUMBER OF TIME STEPS = 1
                            MULTIPLIER FOR DELT =     1.000
                            INITIAL TIME STEP SIZE =   31.00000    

 SLN_1 OUTER ITERATION SUMMARY
 ----------------------------------------------------------------------------------------------------------------------------------------------------------------
                                OUTER      INNER  BACKTRACK  BACKTRACK        INCOMING        OUTGOING                    STEP   MAXIMUM CHANGE MODEL-(CELLID) OR
 OUTER ITERATION STEP       ITERATION  ITERATION       FLAG ITERATIONS        RESIDUAL        RESIDUAL  MAXIMUM CHANGE SUCCESS             MODEL-PACKAGE-(NUMBER)
 ----------------------------------------------------------------------------------------------------------------------------------------------------------------
 Backtracking                       1                     0          0       98.352559       98.352559                       *                                   
 Model                              1         18                                                        7.40634783E-02                             1_GWF-(1,32,1)
 Backtracking                       2                     0          0       1.6401597       1.6401597                       *                                   
 Model                              2          9                                                        2.32907845E-03                             1_GWF-(2,28,9)
 Backtracking                       3                     0          0      0.90415719      0.90415719                       *                                   
 Model                              3          7                                                        8.60035217E-04       *                     1_GWF-(3,15,3)
 ----------------------------------------------------------------------------------------------------------------------------------------------------------------


 3 CALLS TO NUMERICAL SOLUTION IN TIME STEP 1 STRESS PERIOD 4
 34 TOTAL ITERATIONS
 
    Solving:  Stress period:     5    Time step:     1
 
1
                            STRESS PERIOD NO. 5, LENGTH =   30.00000    
                            -----------------------------------------------
                            NUMBER OF TIME STEPS = 1
                            MULTIPLIER FOR DELT =     1.000
                            INITIAL TIME STEP SIZE =   30.00000    

 SLN_1 OUTER ITERATION SUMMARY
 ----------------------------------------------------------------------------------------------------------------------------------------------------------------
                                OUTER      INNER  BACKTRACK  BACKTRACK        INCOMING        OUTGOING                    STEP   MAXIMUM CHANGE MODEL-(CELLID) OR
 OUTER ITERATION STEP       ITERATION  ITERATION       FLAG ITERATIONS        RESIDUAL        RESIDUAL  MAXIMUM CHANGE SUCCESS             MODEL-PACKAGE-(NUMBER)
 ----------------------------------------------------------------------------------------------------------------------------------------------------------------
 Backtracking                       1                     0          0       141.04816       141.04816                       *                                   
 Model                              1         21                                                           -0.12816117                            1_GWF-(3,10,17)
 Backtracking                       2                     0          0       1.6006347       1.6006347                       *                                   
 Model                              2         12                                                        4.20127532E-03                             1_GWF-(3,15,3)
 Backtracking                       3                     0          0       1.3315341       1.3315341                       *                                   
 Model                              3          2                                                       -1.74163493E-04       *                    1_GWF-(1,24,20)
 ----------------------------------------------------------------------------------------------------------------------------------------------------------------


 3 CALLS TO NUMERICAL SOLUTION IN TIME STEP 1 STRESS PERIOD 5
 35 TOTAL ITERATIONS
 
    Solving:  Stress period:     6    Time step:     1
 
1
                            STRESS PERIOD NO. 6, LENGTH =   31.00000    
                            -----------------------------------------------
                            NUMBER OF TIME STEPS = 1
                            MULTIPLIER FOR DELT =     1.000
                            INITIAL TIME STEP SIZE =   31.00000    

 SLN_1 OUTER ITERATION SUMMARY
 ----------------------------------------------------------------------------------------------------------------------------------------------------------------
                                OUTER      INNER  BACKTRACK  BACKTRACK        INCOMING        OUTGOING                    STEP   MAXIMUM CHANGE MODEL-(CELLID) OR
 OUTER ITERATION STEP       ITERATION  ITERATION       FLAG ITERATIONS        RESIDUAL        RESIDUAL  MAXIMUM CHANGE SUCCESS             MODEL-PACKAGE-(NUMBER)
 ----------------------------------------------------------------------------------------------------------------------------------------------------------------
 Backtracking                       1                     0          0       149.63370       149.63370                       *                                   
 Model                              1         24                                                           -0.19464142                             1_GWF-(3,30,7)
 Backtracking                       2                     0          0       4.0421749       4.0421749                       *                                   
 Model                              2         15                                                       -3.82050734E-03                            1_GWF-(1,38,16)
 Backtracking                       3                     0          0      0.25441236      0.25441236                       *                                   
 Model                              3          1                                                       -6.46745403E-05       *                    1_GWF-(1,40,16)
 ----------------------------------------------------------------------------------------------------------------------------------------------------------------


 3 CALLS TO NUMERICAL SOLUTION IN TIME STEP 1 STRESS PERIOD 6
 40 TOTAL ITERATIONS
 
    Solving:  Stress period:     7    Time step:     1
 
1
                            STRESS PERIOD NO. 7, LENGTH =   30.00000    
                            -----------------------------------------------
                            NUMBER OF TIME STEPS = 1
                            MULTIPLIER FOR DELT =     1.000
                            INITIAL TIME STEP SIZE =   30.00000    

 SLN_1 OUTER ITERATION SUMMARY
 ----------------------------------------------------------------------------------------------------------------------------------------------------------------
                                OUTER      INNER  BACKTRACK  BACKTRACK        INCOMING        OUTGOING                    STEP   MAXIMUM CHANGE MODEL-(CELLID) OR
 OUTER ITERATION STEP       ITERATION  ITERATION       FLAG ITERATIONS        RESIDUAL        RESIDUAL  MAXIMUM CHANGE SUCCESS             MODEL-PACKAGE-(NUMBER)
 ----------------------------------------------------------------------------------------------------------------------------------------------------------------
 Backtracking                       1                     0          0       120.53178       120.53178                       *                                   
 Model                              1         25                                                           -0.21266310                             1_GWF-(3,30,7)
 Backtracking                       2                     0          0       6.2979649       6.2979649                       *                                   
 Model                              2         16                                                       -5.78099145E-03                            1_GWF-(1,40,16)
 Backtracking                       3                     0          0      0.38624301      0.38624301                       *                                   
 Model                              3          4                                                       -4.15242539E-04       *                    1_GWF-(1,40,16)
 ----------------------------------------------------------------------------------------------------------------------------------------------------------------


 3 CALLS TO NUMERICAL SOLUTION IN TIME STEP 1 STRESS PERIOD 7
 45 TOTAL ITERATIONS
 
    Solving:  Stress period:     8    Time step:     1
 
1
                            STRESS PERIOD NO. 8, LENGTH =   31.00000    
                            -----------------------------------------------
                            NUMBER OF TIME STEPS = 1
                            MULTIPLIER FOR DELT =     1.000
                            INITIAL TIME STEP SIZE =   31.00000    

 SLN_1 OUTER ITERATION SUMMARY
 ----------------------------------------------------------------------------------------------------------------------------------------------------------------
                                OUTER      INNER  BACKTRACK  BACKTRACK        INCOMING        OUTGOING                    STEP   MAXIMUM CHANGE MODEL-(CELLID) OR
 OUTER ITERATION STEP       ITERATION  ITERATION       FLAG ITERATIONS        RESIDUAL        RESIDUAL  MAXIMUM CHANGE SUCCESS             MODEL-PACKAGE-(NUMBER)
 ----------------------------------------------------------------------------------------------------------------------------------------------------------------
 Backtracking                       1                     0          0       74.821336       74.821336                       *                                   
 Model                              1         25                                                           -0.18581443                             1_GWF-(1,30,7)
 Backtracking                       2                     0          0       9.4017060       9.4017060                       *                                   
 Model                              2         10                                                       -8.40058825E-03                            1_GWF-(1,40,16)
 Backtracking                       3                     0          0       1.1763291       1.1763291                       *                                   
 Model                              3          9                                                       -2.94113424E-03                            1_GWF-(2,35,20)
 Backtracking                       4                     0          0      0.83164148      0.83164148                       *                                   
 Model                              4          4                                                       -3.00709575E-04       *                    1_GWF-(2,34,10)
 ----------------------------------------------------------------------------------------------------------------------------------------------------------------


 4 CALLS TO NUMERICAL SOLUTION IN TIME STEP 1 STRESS PERIOD 8
 48 TOTAL ITERATIONS
 
    Solving:  Stress period:     9    Time step:     1
 
1
                            STRESS PERIOD NO. 9, LENGTH =   31.00000    
                            -----------------------------------------------
                            NUMBER OF TIME STEPS = 1
                            MULTIPLIER FOR DELT =     1.000
                            INITIAL TIME STEP SIZE =   31.00000    

 SLN_1 OUTER ITERATION SUMMARY
 ----------------------------------------------------------------------------------------------------------------------------------------------------------------
                                OUTER      INNER  BACKTRACK  BACKTRACK        INCOMING        OUTGOING                    STEP   MAXIMUM CHANGE MODEL-(CELLID) OR
 OUTER ITERATION STEP       ITERATION  ITERATION       FLAG ITERATIONS        RESIDUAL        RESIDUAL  MAXIMUM CHANGE SUCCESS             MODEL-PACKAGE-(NUMBER)
 ----------------------------------------------------------------------------------------------------------------------------------------------------------------
 Backtracking                       1                     0          0       52.044176       52.044176                       *                                   
 Model                              1         24                                                           -0.12467471                             1_GWF-(1,29,7)
 Backtracking                       2                     0          0       41.276775       41.276775                       *                                   
 Model                              2         21                                                           -0.12665025                            1_GWF-(1,21,16)
 Backtracking                       3                     0          0       5.0538383       5.0538383                       *                                   
 Model                              3         13                                                       -1.63373852E-02                            1_GWF-(1,13,16)
 Backtracking                       4                     0          0       1.4388566       1.4388566                       *                                   
 Model                              4          4                                                       -3.70324110E-03                            1_GWF-(1,13,16)
 Backtracking                       5                     0          0      0.18667290      0.18667290                       *                                   
 Model                              5          5                                                       -5.89488535E-04       *                    1_GWF-(1,13,16)
 ----------------------------------------------------------------------------------------------------------------------------------------------------------------


 5 CALLS TO NUMERICAL SOLUTION IN TIME STEP 1 STRESS PERIOD 9
 67 TOTAL ITERATIONS
 
    Solving:  Stress period:    10    Time step:     1
 
1
                            STRESS PERIOD NO. 10, LENGTH =   30.00000    
                            -----------------------------------------------
                            NUMBER OF TIME STEPS = 1
                            MULTIPLIER FOR DELT =     1.000
                            INITIAL TIME STEP SIZE =   30.00000    

 SLN_1 OUTER ITERATION SUMMARY
 ----------------------------------------------------------------------------------------------------------------------------------------------------------------
                                OUTER      INNER  BACKTRACK  BACKTRACK        INCOMING        OUTGOING                    STEP   MAXIMUM CHANGE MODEL-(CELLID) OR
 OUTER ITERATION STEP       ITERATION  ITERATION       FLAG ITERATIONS        RESIDUAL        RESIDUAL  MAXIMUM CHANGE SUCCESS             MODEL-PACKAGE-(NUMBER)
 ----------------------------------------------------------------------------------------------------------------------------------------------------------------
 Backtracking                       1                     0          0       56.984161       56.984161                       *                                   
 Model                              1         19                                                       -9.57857792E-02                             1_GWF-(1,22,7)
 Backtracking                       2                     0          0       19.542318       19.542318                       *                                   
 Model                              2         22                                                       -6.09680526E-02                            1_GWF-(1,13,16)
 Backtracking                       3                     0          0       4.0688123       4.0688123                       *                                   
 Model                              3          8                                                       -1.18453230E-02                            1_GWF-(1,12,16)
 Backtracking                       4                     0          0      0.51956893      0.51956893                       *                                   
 Model                              4          7                                                       -2.47068968E-03                            1_GWF-(1,12,16)
 Backtracking                       5                     0          0      0.43682257      0.43682257                       *                                   
 Model                              5          3                                                       -9.01547509E-04       *                    1_GWF-(1,12,16)
 ----------------------------------------------------------------------------------------------------------------------------------------------------------------


 5 CALLS TO NUMERICAL SOLUTION IN TIME STEP 1 STRESS PERIOD 10
 59 TOTAL ITERATIONS
 
    Solving:  Stress period:    11    Time step:     1
 
1
                            STRESS PERIOD NO. 11, LENGTH =   31.00000    
                            -----------------------------------------------
                            NUMBER OF TIME STEPS = 1
                            MULTIPLIER FOR DELT =     1.000
                            INITIAL TIME STEP SIZE =   31.00000    

 SLN_1 OUTER ITERATION SUMMARY
 ----------------------------------------------------------------------------------------------------------------------------------------------------------------
                                OUTER      INNER  BACKTRACK  BACKTRACK        INCOMING        OUTGOING                    STEP   MAXIMUM CHANGE MODEL-(CELLID) OR
 OUTER ITERATION STEP       ITERATION  ITERATION       FLAG ITERATIONS        RESIDUAL        RESIDUAL  MAXIMUM CHANGE SUCCESS             MODEL-PACKAGE-(NUMBER)
 ----------------------------------------------------------------------------------------------------------------------------------------------------------------
 Backtracking                       1                     0          0       112.47518       112.47518                       *                                   
 Model                              1         23                                                        9.25929654E-02                            1_GWF-(3,10,17)
 Backtracking                       2                     0          0       25.424836       25.424836                       *                                   
 Model                              2         19                                                        6.36398438E-02                            1_GWF-(1,13,16)
 Backtracking                       3                     0          0       6.5414085       6.5414085                       *                                   
 Model                              3          8                                                        4.48472344E-03                            1_GWF-(1,14,16)
 Backtracking                       4                     0          0       1.0994337       1.0994337                       *                                   
 Model                              4          4                                                       -9.74414440E-04       *                    1_GWF-(2,14,16)
 ----------------------------------------------------------------------------------------------------------------------------------------------------------------


 4 CALLS TO NUMERICAL SOLUTION IN TIME STEP 1 STRESS PERIOD 11
 54 TOTAL ITERATIONS
 
    Solving:  Stress period:    12    Time step:     1
 
1
                            STRESS PERIOD NO. 12, LENGTH =   30.00000    
                            -----------------------------------------------
                            NUMBER OF TIME STEPS = 1
                            MULTIPLIER FOR DELT =     1.000
                            INITIAL TIME STEP SIZE =   30.00000    

 SLN_1 OUTER ITERATION SUMMARY
 ----------------------------------------------------------------------------------------------------------------------------------------------------------------
                                OUTER      INNER  BACKTRACK  BACKTRACK        INCOMING        OUTGOING                    STEP   MAXIMUM CHANGE MODEL-(CELLID) OR
 OUTER ITERATION STEP       ITERATION  ITERATION       FLAG ITERATIONS        RESIDUAL        RESIDUAL  MAXIMUM CHANGE SUCCESS             MODEL-PACKAGE-(NUMBER)
 ----------------------------------------------------------------------------------------------------------------------------------------------------------------
 Backtracking                       1                     0          0       149.29759       149.29759                       *                                   
 Model                              1         34                                                            0.17165168                            1_GWF-(3,12,14)
 Backtracking                       2                     0          0       35.212800       35.212800                       *                                   
 Model                              2         25                                                        6.67052205E-02                            1_GWF-(1,18,16)
 Backtracking                       3                     0          0       22.820181       22.820181                       *                                   
 Model                              3         13                                                        5.77265462E-02                            1_GWF-(1,20,16)
 Backtracking                       4                     0          0       8.0099895       8.0099895                       *                                   
 Model                              4         15                                                        2.01849626E-02                            1_GWF-(1,20,16)
 Backtracking                       5                     0          0       4.7804446       4.7804446                       *                                   
 Model                              5          7                                                        1.36686065E-02                            1_GWF-(1,21,16)
 Backtracking                       6                     0          0      0.26655932      0.26655932                       *                                   
 Model                              6          7                                                        1.34367725E-03                            1_GWF-(2,21,20)
 Backtracking                       7                     0          1       1.2385342      0.87754976                                                           
 Model                              7          5                                                        1.08513000E-03                            1_GWF-(1,21,16)
 Backtracking                       8                     0          0      0.29315345      0.29315345                       *                                   
 Model                              8          1                                                        7.03002745E-05       *                    1_GWF-(1,21,20)
 ----------------------------------------------------------------------------------------------------------------------------------------------------------------


 8 CALLS TO NUMERICAL SOLUTION IN TIME STEP 1 STRESS PERIOD 12
 107 TOTAL ITERATIONS
 
    Solving:  Stress period:    13    Time step:     1
 
1
                            STRESS PERIOD NO. 13, LENGTH =   31.00000    
                            -----------------------------------------------
                            NUMBER OF TIME STEPS = 1
                            MULTIPLIER FOR DELT =     1.000
                            INITIAL TIME STEP SIZE =   31.00000    

 SLN_1 OUTER ITERATION SUMMARY
 ----------------------------------------------------------------------------------------------------------------------------------------------------------------
                                OUTER      INNER  BACKTRACK  BACKTRACK        INCOMING        OUTGOING                    STEP   MAXIMUM CHANGE MODEL-(CELLID) OR
 OUTER ITERATION STEP       ITERATION  ITERATION       FLAG ITERATIONS        RESIDUAL        RESIDUAL  MAXIMUM CHANGE SUCCESS             MODEL-PACKAGE-(NUMBER)
 ----------------------------------------------------------------------------------------------------------------------------------------------------------------
 Backtracking                       1                     0          0       150.95972       150.95972                       *                                   
 Model                              1         27                                                            0.23395039                            1_GWF-(3,21,15)
 Backtracking                       2                     0          0       39.602835       39.602835                       *                                   
 Model                              2         21                                                       -3.87778687E-02                            1_GWF-(1,21,16)
 Backtracking                       3                     0          0       4.0231597       4.0231597                       *                                   
 Model                              3          8                                                       -5.78427725E-03                            1_GWF-(1,21,16)
 Backtracking                       4                     0          0      0.73674429      0.73674429                       *                                   
 Model                              4          8                                                        8.48968017E-04       *                    1_GWF-(2,35,20)
 ----------------------------------------------------------------------------------------------------------------------------------------------------------------


 4 CALLS TO NUMERICAL SOLUTION IN TIME STEP 1 STRESS PERIOD 13
 64 TOTAL ITERATIONS
 
    Solving:  Stress period:    14    Time step:     1
 
1
                            STRESS PERIOD NO. 14, LENGTH =   31.00000    
                            -----------------------------------------------
                            NUMBER OF TIME STEPS = 1
                            MULTIPLIER FOR DELT =     1.000
                            INITIAL TIME STEP SIZE =   31.00000    

 SLN_1 OUTER ITERATION SUMMARY
 ----------------------------------------------------------------------------------------------------------------------------------------------------------------
                                OUTER      INNER  BACKTRACK  BACKTRACK        INCOMING        OUTGOING                    STEP   MAXIMUM CHANGE MODEL-(CELLID) OR
 OUTER ITERATION STEP       ITERATION  ITERATION       FLAG ITERATIONS        RESIDUAL        RESIDUAL  MAXIMUM CHANGE SUCCESS             MODEL-PACKAGE-(NUMBER)
 ----------------------------------------------------------------------------------------------------------------------------------------------------------------
 Backtracking                       1                     0          0       113.00016       113.00016                       *                                   
 Model                              1         32                                                            0.22335495                             1_GWF-(3,30,7)
 Backtracking                       2                     0          0       8.5274608       8.5274608                       *                                   
 Model                              2         18                                                        8.81344941E-03                            1_GWF-(1,39,16)
 Backtracking                       3                     0          0      0.39967608      0.39967608                       *                                   
 Model                              3          4                                                        4.75142499E-04       *                    1_GWF-(1,40,16)
 ----------------------------------------------------------------------------------------------------------------------------------------------------------------


 3 CALLS TO NUMERICAL SOLUTION IN TIME STEP 1 STRESS PERIOD 14
 54 TOTAL ITERATIONS
 
    Solving:  Stress period:    15    Time step:     1
 
1
                            STRESS PERIOD NO. 15, LENGTH =   28.00000    
                            -----------------------------------------------
                            NUMBER OF TIME STEPS = 1
                            MULTIPLIER FOR DELT =     1.000
                            INITIAL TIME STEP SIZE =   28.00000    

 SLN_1 OUTER ITERATION SUMMARY
 ----------------------------------------------------------------------------------------------------------------------------------------------------------------
                                OUTER      INNER  BACKTRACK  BACKTRACK        INCOMING        OUTGOING                    STEP   MAXIMUM CHANGE MODEL-(CELLID) OR
 OUTER ITERATION STEP       ITERATION  ITERATION       FLAG ITERATIONS        RESIDUAL        RESIDUAL  MAXIMUM CHANGE SUCCESS             MODEL-PACKAGE-(NUMBER)
 ----------------------------------------------------------------------------------------------------------------------------------------------------------------
 Backtracking                       1                     0          0       58.109196       58.109196                       *                                   
 Model                              1         22                                                            0.14144433                             1_GWF-(1,30,7)
 Backtracking                       2                     0          0       4.6713559       4.6713559                       *                                   
 Model                              2          9                                                        4.43296837E-03                            1_GWF-(1,40,16)
 Backtracking                       3                     0          0      0.37194923      0.37194923                       *                                   
 Model                              3          8                                                        1.39204306E-03                            1_GWF-(2,35,20)
 Backtracking                       4                     4          0      0.88023556      0.88023556                       *                                   
 Model                              4          2                                                        1.78580182E-04       *                    1_GWF-(1,26,19)
 ----------------------------------------------------------------------------------------------------------------------------------------------------------------


 4 CALLS TO NUMERICAL SOLUTION IN TIME STEP 1 STRESS PERIOD 15
 41 TOTAL ITERATIONS
 
    Solving:  Stress period:    16    Time step:     1
 
1
                            STRESS PERIOD NO. 16, LENGTH =   31.00000    
                            -----------------------------------------------
                            NUMBER OF TIME STEPS = 1
                            MULTIPLIER FOR DELT =     1.000
                            INITIAL TIME STEP SIZE =   31.00000    

 SLN_1 OUTER ITERATION SUMMARY
 ----------------------------------------------------------------------------------------------------------------------------------------------------------------
                                OUTER      INNER  BACKTRACK  BACKTRACK        INCOMING        OUTGOING                    STEP   MAXIMUM CHANGE MODEL-(CELLID) OR
 OUTER ITERATION STEP       ITERATION  ITERATION       FLAG ITERATIONS        RESIDUAL        RESIDUAL  MAXIMUM CHANGE SUCCESS             MODEL-PACKAGE-(NUMBER)
 ----------------------------------------------------------------------------------------------------------------------------------------------------------------
 Backtracking                       1                     0          0       67.896376       67.896376                       *                                   
 Model                              1         22                                                        8.71027662E-02                             1_GWF-(1,22,7)
 Backtracking                       2                     0          0       2.0585922       2.0585922                       *                                   
 Model                              2          9                                                        2.09222520E-03                            1_GWF-(1,40,16)
 Backtracking                       3                     0          0      0.21849744      0.21849744                       *                                   
 Model                              3          1                                                       -6.21885104E-05       *                    1_GWF-(1,39,17)
 ----------------------------------------------------------------------------------------------------------------------------------------------------------------


 3 CALLS TO NUMERICAL SOLUTION IN TIME STEP 1 STRESS PERIOD 16
 32 TOTAL ITERATIONS
 
    Solving:  Stress period:    17    Time step:     1
 
1
                            STRESS PERIOD NO. 17, LENGTH =   30.00000    
                            -----------------------------------------------
                            NUMBER OF TIME STEPS = 1
                            MULTIPLIER FOR DELT =     1.000
                            INITIAL TIME STEP SIZE =   30.00000    

 SLN_1 OUTER ITERATION SUMMARY
 ----------------------------------------------------------------------------------------------------------------------------------------------------------------
                                OUTER      INNER  BACKTRACK  BACKTRACK        INCOMING        OUTGOING                    STEP   MAXIMUM CHANGE MODEL-(CELLID) OR
 OUTER ITERATION STEP       ITERATION  ITERATION       FLAG ITERATIONS        RESIDUAL        RESIDUAL  MAXIMUM CHANGE SUCCESS             MODEL-PACKAGE-(NUMBER)
 ----------------------------------------------------------------------------------------------------------------------------------------------------------------
 Backtracking                       1                     0          0       121.55993       121.55993                       *                                   
 Model                              1         21                                                           -0.10715624                            1_GWF-(3,10,17)
 Backtracking                       2                     0          0       1.2431228       1.2431228                       *                                   
 Model                              2          9                                                        2.89862739E-03                             1_GWF-(3,18,4)
 Backtracking                       3                     0          0      0.82289207      0.82289207                       *                                   
 Model                              3          2                                                        1.23541438E-04       *                     1_GWF-(3,29,6)
 ----------------------------------------------------------------------------------------------------------------------------------------------------------------


 3 CALLS TO NUMERICAL SOLUTION IN TIME STEP 1 STRESS PERIOD 17
 32 TOTAL ITERATIONS
 
    Solving:  Stress period:    18    Time step:     1
 
1
                            STRESS PERIOD NO. 18, LENGTH =   31.00000    
                            -----------------------------------------------
                            NUMBER OF TIME STEPS = 1
                            MULTIPLIER FOR DELT =     1.000
                            INITIAL TIME STEP SIZE =   31.00000    

 SLN_1 OUTER ITERATION SUMMARY
 ----------------------------------------------------------------------------------------------------------------------------------------------------------------
                                OUTER      INNER  BACKTRACK  BACKTRACK        INCOMING        OUTGOING                    STEP   MAXIMUM CHANGE MODEL-(CELLID) OR
 OUTER ITERATION STEP       ITERATION  ITERATION       FLAG ITERATIONS        RESIDUAL        RESIDUAL  MAXIMUM CHANGE SUCCESS             MODEL-PACKAGE-(NUMBER)
 ----------------------------------------------------------------------------------------------------------------------------------------------------------------
 Backtracking                       1                     0          0       150.99116       150.99116                       *                                   
 Model                              1         24                                                           -0.18353582                             1_GWF-(3,30,7)
 Backtracking                       2                     0          0       4.0502358       4.0502358                       *                                   
 Model                              2         15                                                       -3.70132245E-03                            1_GWF-(1,38,16)
 Backtracking                       3                     0          0      0.25525563      0.25525563                       *                                   
 Model                              3          1                                                       -7.62042838E-05       *                    1_GWF-(1,40,16)
 ----------------------------------------------------------------------------------------------------------------------------------------------------------------


 3 CALLS TO NUMERICAL SOLUTION IN TIME STEP 1 STRESS PERIOD 18
 40 TOTAL ITERATIONS
 
    Solving:  Stress period:    19    Time step:     1
 
1
                            STRESS PERIOD NO. 19, LENGTH =   30.00000    
                            -----------------------------------------------
                            NUMBER OF TIME STEPS = 1
                            MULTIPLIER FOR DELT =     1.000
                            INITIAL TIME STEP SIZE =   30.00000    

 SLN_1 OUTER ITERATION SUMMARY
 ----------------------------------------------------------------------------------------------------------------------------------------------------------------
                                OUTER      INNER  BACKTRACK  BACKTRACK        INCOMING        OUTGOING                    STEP   MAXIMUM CHANGE MODEL-(CELLID) OR
 OUTER ITERATION STEP       ITERATION  ITERATION       FLAG ITERATIONS        RESIDUAL        RESIDUAL  MAXIMUM CHANGE SUCCESS             MODEL-PACKAGE-(NUMBER)
 ----------------------------------------------------------------------------------------------------------------------------------------------------------------
 Backtracking                       1                     0          0       140.90552       140.90552                       *                                   
 Model                              1         30                                                           -0.22528608                             1_GWF-(3,30,7)
 Backtracking                       2                     0          0       6.6349579       6.6349579                       *                                   
 Model                              2         16                                                       -6.13903237E-03                            1_GWF-(1,39,16)
 Backtracking                       3                     0          0      0.45134101      0.45134101                       *                                   
 Model                              3          4                                                       -5.07121501E-04       *                    1_GWF-(1,40,16)
 ----------------------------------------------------------------------------------------------------------------------------------------------------------------


 3 CALLS TO NUMERICAL SOLUTION IN TIME STEP 1 STRESS PERIOD 19
 50 TOTAL ITERATIONS
 
    Solving:  Stress period:    20    Time step:     1
 
1
                            STRESS PERIOD NO. 20, LENGTH =   31.00000    
                            -----------------------------------------------
                            NUMBER OF TIME STEPS = 1
                            MULTIPLIER FOR DELT =     1.000
                            INITIAL TIME STEP SIZE =   31.00000    

 SLN_1 OUTER ITERATION SUMMARY
 ----------------------------------------------------------------------------------------------------------------------------------------------------------------
                                OUTER      INNER  BACKTRACK  BACKTRACK        INCOMING        OUTGOING                    STEP   MAXIMUM CHANGE MODEL-(CELLID) OR
 OUTER ITERATION STEP       ITERATION  ITERATION       FLAG ITERATIONS        RESIDUAL        RESIDUAL  MAXIMUM CHANGE SUCCESS             MODEL-PACKAGE-(NUMBER)
 ----------------------------------------------------------------------------------------------------------------------------------------------------------------
 Backtracking                       1                     0          0       95.403377       95.403377                       *                                   
 Model                              1         26                                                           -0.20662641                             1_GWF-(3,30,7)
 Backtracking                       2                     0          0       17.011114       17.011114                       *                                   
 Model                              2         23                                                       -5.00701504E-02                            1_GWF-(1,22,16)
 Backtracking                       3                     0          0       8.9789213       8.9789213                       *                                   
 Model                              3          8                                                       -2.52261178E-02                            1_GWF-(1,21,16)
 Backtracking                       4                     0          0       1.7760307       1.7760307                       *                                   
 Model                              4         10                                                       -5.09831351E-03                            1_GWF-(1,21,16)
 Backtracking                       5                     0          0       1.1208550       1.1208550                       *                                   
 Model                              5          6                                                       -2.24469981E-03                            1_GWF-(1,21,16)
 Backtracking                       6                     0          0      0.14487517      0.14487517                       *                                   
 Model                              6          5                                                       -4.64555999E-04       *                    1_GWF-(1,35,16)
 ----------------------------------------------------------------------------------------------------------------------------------------------------------------


 6 CALLS TO NUMERICAL SOLUTION IN TIME STEP 1 STRESS PERIOD 20
 78 TOTAL ITERATIONS
 
    Solving:  Stress period:    21    Time step:     1
 
1
                            STRESS PERIOD NO. 21, LENGTH =   31.00000    
                            -----------------------------------------------
                            NUMBER OF TIME STEPS = 1
                            MULTIPLIER FOR DELT =     1.000
                            INITIAL TIME STEP SIZE =   31.00000    

 SLN_1 OUTER ITERATION SUMMARY
 ----------------------------------------------------------------------------------------------------------------------------------------------------------------
                                OUTER      INNER  BACKTRACK  BACKTRACK        INCOMING        OUTGOING                    STEP   MAXIMUM CHANGE MODEL-(CELLID) OR
 OUTER ITERATION STEP       ITERATION  ITERATION       FLAG ITERATIONS        RESIDUAL        RESIDUAL  MAXIMUM CHANGE SUCCESS             MODEL-PACKAGE-(NUMBER)
 ----------------------------------------------------------------------------------------------------------------------------------------------------------------
 Backtracking                       1                     0          0       47.059105       47.059105                       *                                   
 Model                              1         22                                                           -0.12614778                             1_GWF-(1,30,7)
 Backtracking                       2                     0          0       36.258050       36.258050                       *                                   
 Model                              2         21                                                       -9.46521423E-02                            1_GWF-(1,20,16)
 Backtracking                       3                     0          0       4.5747050       4.5747050                       *                                   
 Model                              3         11                                                       -1.46469104E-02                            1_GWF-(1,12,16)
 Backtracking                       4                     0          0       1.2238953       1.2238953                       *                                   
 Model                              4         10                                                       -3.71628131E-03                            1_GWF-(1,12,16)
 Backtracking                       5                     0          0      0.57332201      0.57332201                       *                                   
 Model                              5          3                                                       -1.24164562E-03                            1_GWF-(1,12,16)
 Backtracking                       6                     0          0      0.12194205      0.12194205                       *                                   
 Model                              6          1                                                       -6.53370162E-05       *                    1_GWF-(2,13,16)
 ----------------------------------------------------------------------------------------------------------------------------------------------------------------


 6 CALLS TO NUMERICAL SOLUTION IN TIME STEP 1 STRESS PERIOD 21
 68 TOTAL ITERATIONS
 
    Solving:  Stress period:    22    Time step:     1
 
1
                            STRESS PERIOD NO. 22, LENGTH =   30.00000    
                            -----------------------------------------------
                            NUMBER OF TIME STEPS = 1
                            MULTIPLIER FOR DELT =     1.000
                            INITIAL TIME STEP SIZE =   30.00000    

 SLN_1 OUTER ITERATION SUMMARY
 ----------------------------------------------------------------------------------------------------------------------------------------------------------------
                                OUTER      INNER  BACKTRACK  BACKTRACK        INCOMING        OUTGOING                    STEP   MAXIMUM CHANGE MODEL-(CELLID) OR
 OUTER ITERATION STEP       ITERATION  ITERATION       FLAG ITERATIONS        RESIDUAL        RESIDUAL  MAXIMUM CHANGE SUCCESS             MODEL-PACKAGE-(NUMBER)
 ----------------------------------------------------------------------------------------------------------------------------------------------------------------
 Backtracking                       1                     0          0       83.541403       83.541403                       *                                   
 Model                              1         18                                                       -7.54065061E-02                             1_GWF-(1,22,7)
 Backtracking                       2                     0          0       7.7433845       7.7433845                       *                                   
 Model                              2         16                                                       -2.57653575E-02                            1_GWF-(1,13,16)
 Backtracking                       3                     1          1       9.0812452       8.3421230                                                           
 Model                              3         11                                                       -1.44975893E-02                            1_GWF-(1,13,16)
 Backtracking                       4                     0          0       4.7166562       4.7166562                       *                                   
 Model                              4          7                                                       -4.53571285E-03                            1_GWF-(1,13,16)
 Backtracking                       5                     0          0       1.4535578       1.4535578                       *                                   
 Model                              5          3                                                       -1.18474741E-03                            1_GWF-(1,13,16)
 Backtracking                       6                     0          0      0.31088922      0.31088922                       *                                   
 Model                              6          6                                                       -1.76663415E-03                            1_GWF-(1,13,16)
 Backtracking                       7                     0          1      0.75662603      0.58199329                                                           
 Model                              7          8                                                       -1.13733090E-03                            1_GWF-(1,12,16)
 Backtracking                       8                     0          0      0.33465910      0.33465910                       *                                   
 Model                              8          3                                                       -4.31179050E-04       *                    1_GWF-(1,12,16)
 ----------------------------------------------------------------------------------------------------------------------------------------------------------------


 8 CALLS TO NUMERICAL SOLUTION IN TIME STEP 1 STRESS PERIOD 22
 72 TOTAL ITERATIONS
 
    Solving:  Stress period:    23    Time step:     1
 
1
                            STRESS PERIOD NO. 23, LENGTH =   31.00000    
                            -----------------------------------------------
                            NUMBER OF TIME STEPS = 1
                            MULTIPLIER FOR DELT =     1.000
                            INITIAL TIME STEP SIZE =   31.00000    

 SLN_1 OUTER ITERATION SUMMARY
 ----------------------------------------------------------------------------------------------------------------------------------------------------------------
                                OUTER      INNER  BACKTRACK  BACKTRACK        INCOMING        OUTGOING                    STEP   MAXIMUM CHANGE MODEL-(CELLID) OR
 OUTER ITERATION STEP       ITERATION  ITERATION       FLAG ITERATIONS        RESIDUAL        RESIDUAL  MAXIMUM CHANGE SUCCESS             MODEL-PACKAGE-(NUMBER)
 ----------------------------------------------------------------------------------------------------------------------------------------------------------------
 Backtracking                       1                     0          0       135.27440       135.27440                       *                                   
 Model                              1         21                                                            0.13104478                            1_GWF-(3,12,14)
 Backtracking                       2                     0          0       31.398387       31.398387                       *                                   
 Model                              2         20                                                        5.65380723E-02                            1_GWF-(1,15,16)
 Backtracking                       3                     0          0       10.962979       10.962979                       *                                   
 Model                              3         17                                                        2.83193896E-02                            1_GWF-(1,17,16)
 Backtracking                       4                     0          0       4.8419390       4.8419390                       *                                   
 Model                              4         15                                                        1.33507665E-02                            1_GWF-(1,17,16)
 Backtracking                       5                     0          0       1.4499780       1.4499780                       *                                   
 Model                              5          6                                                        2.42764401E-03                            1_GWF-(1,17,16)
 Backtracking                       6                     0          0      0.50842538      0.50842538                       *                                   
 Model                              6          9                                                        1.44813641E-03                            1_GWF-(1,18,16)
 Backtracking                       7                     1          1      0.65308281      0.50248522                                                           
 Model                              7          2                                                        2.70812347E-04       *                    1_GWF-(1,18,16)
 ----------------------------------------------------------------------------------------------------------------------------------------------------------------


 7 CALLS TO NUMERICAL SOLUTION IN TIME STEP 1 STRESS PERIOD 23
 90 TOTAL ITERATIONS
 
    Solving:  Stress period:    24    Time step:     1
 
1
                            STRESS PERIOD NO. 24, LENGTH =   30.00000    
                            -----------------------------------------------
                            NUMBER OF TIME STEPS = 1
                            MULTIPLIER FOR DELT =     1.000
                            INITIAL TIME STEP SIZE =   30.00000    

 SLN_1 OUTER ITERATION SUMMARY
 ----------------------------------------------------------------------------------------------------------------------------------------------------------------
                                OUTER      INNER  BACKTRACK  BACKTRACK        INCOMING        OUTGOING                    STEP   MAXIMUM CHANGE MODEL-(CELLID) OR
 OUTER ITERATION STEP       ITERATION  ITERATION       FLAG ITERATIONS        RESIDUAL        RESIDUAL  MAXIMUM CHANGE SUCCESS             MODEL-PACKAGE-(NUMBER)
 ----------------------------------------------------------------------------------------------------------------------------------------------------------------
 Backtracking                       1                     0          0       153.98224       153.98224                       *                                   
 Model                              1         28                                                            0.20031873                             1_GWF-(3,30,7)
 Backtracking                       2                     0          0       49.977144       49.977144                       *                                   
 Model                              2         27                                                        9.39580425E-02                            1_GWF-(1,21,16)
 Backtracking                       3                     0          0       22.591615       22.591615                       *                                   
 Model                              3         23                                                        3.90919910E-02                            1_GWF-(1,26,16)
 Backtracking                       4                     0          0       12.133977       12.133977                       *                                   
 Model                              4         12                                                        2.54020051E-02                            1_GWF-(1,32,16)
 Backtracking                       5                     0          0       7.6862367       7.6862367                       *                                   
 Model                              5         17                                                        1.70175360E-02                            1_GWF-(1,33,16)
 Backtracking                       6                     0          0       3.3366048       3.3366048                       *                                   
 Model                              6         10                                                        5.02565050E-03                            1_GWF-(1,35,16)
 Backtracking                       7                     0          0      0.91450110      0.91450110                       *                                   
 Model                              7         10                                                        2.28834229E-03                            1_GWF-(1,35,16)
 Backtracking                       8                     0          0      0.60283317      0.60283317                       *                                   
 Model                              8          3                                                        2.68044274E-04       *                    1_GWF-(1,35,16)
 ----------------------------------------------------------------------------------------------------------------------------------------------------------------


 8 CALLS TO NUMERICAL SOLUTION IN TIME STEP 1 STRESS PERIOD 24
 130 TOTAL ITERATIONS
 
    Solving:  Stress period:    25    Time step:     1
 
1
                            STRESS PERIOD NO. 25, LENGTH =   31.00000    
                            -----------------------------------------------
                            NUMBER OF TIME STEPS = 1
                            MULTIPLIER FOR DELT =     1.000
                            INITIAL TIME STEP SIZE =   31.00000    

 SLN_1 OUTER ITERATION SUMMARY
 ----------------------------------------------------------------------------------------------------------------------------------------------------------------
                                OUTER      INNER  BACKTRACK  BACKTRACK        INCOMING        OUTGOING                    STEP   MAXIMUM CHANGE MODEL-(CELLID) OR
 OUTER ITERATION STEP       ITERATION  ITERATION       FLAG ITERATIONS        RESIDUAL        RESIDUAL  MAXIMUM CHANGE SUCCESS             MODEL-PACKAGE-(NUMBER)
 ----------------------------------------------------------------------------------------------------------------------------------------------------------------
 Backtracking                       1                     0          0       135.52919       135.52919                       *                                   
 Model                              1         25                                                            0.23374072                            1_GWF-(3,27,11)
 Backtracking                       2                     0          0       11.105702       11.105702                       *                                   
 Model                              2         18                                                        1.23650739E-02                            1_GWF-(1,39,16)
 Backtracking                       3                     0          0      0.54885285      0.54885285                       *                                   
 Model                              3          4                                                        6.75651617E-04       *                    1_GWF-(1,40,16)
 ----------------------------------------------------------------------------------------------------------------------------------------------------------------


 3 CALLS TO NUMERICAL SOLUTION IN TIME STEP 1 STRESS PERIOD 25
 47 TOTAL ITERATIONS

 MEMORY MANAGER TOTAL STORAGE BY DATA TYPE, IN MEGABYTES
 -------------------------------
                    ALLOCATED   
 DATA TYPE           MEMORY     
 -------------------------------
 Character        5.73300000E-03
 Logical          4.40000000E-05
 Integer          0.60087200    
 Real             1.1713840     
 -------------------------------
 Total            1.7780330     
 -------------------------------


 
 Run end date and time (yyyy/mm/dd hh:mm:ss): 2022/03/01 17:01:22
 Elapsed run time:  0.659 Seconds
 Normal termination of simulation.
