                                   MODFLOW 6
                U.S. GEOLOGICAL SURVEY MODULAR HYDROLOGIC MODEL
                            VERSION 6.2.1 02/18/2021

   MODFLOW 6 compiled Feb 18 2021 08:24:05 with IFORT compiler (ver. 19.10.2)

This software has been approved for release by the U.S. Geological 
Survey (USGS). Although the software has been subjected to rigorous 
review, the USGS reserves the right to update the software as needed 
pursuant to further analysis and review. No warranty, expressed or 
implied, is made by the USGS or the U.S. Government as to the 
functionality of the software and related material nor shall the 
fact of release constitute any such warranty. Furthermore, the 
software is released on condition that neither the USGS nor the U.S. 
Government shall be held liable for any damages resulting from its 
authorized or unauthorized use. Also refer to the USGS Water 
Resources Software User Rights Notice for complete use, copyright, 
and distribution information.


System command used to initiate simulation:
mf6.exe

MODFLOW was compiled using uniform precision.

Real Variables
  KIND: 8
  TINY (smallest non-zero value):    2.225074-308
  HUGE (largest value):    1.797693+308
  PRECISION: 15
  BIT SIZE: 64

Integer Variables
  KIND: 4
  HUGE (largest value): 2147483647
  BIT SIZE: 32

Long Integer Variables
  KIND: 8
  HUGE (largest value): 9223372036854775807
  BIT SIZE: 64

Logical Variables
  KIND: 4
  BIT SIZE: 32
 

 OPENED mfsim.nam
 FILE TYPE:NAM   UNIT 1001   STATUS:OLD                 
 FORMAT:FORMATTED              ACCESS:SEQUENTIAL          
 ACTION:READ                

 # File generated by Flopy version 3.3.5 on 03/02/2022 at 15:37:06.

 READING SIMULATION OPTIONS
    SIMULATION WILL CONTINUE EVEN IF THERE IS NONCONVERGENCE.
 END OF SIMULATION OPTIONS

 READING SIMULATION TIMING

 OPENED freyberg6.tdis
 FILE TYPE:TDIS   UNIT 1002   STATUS:OLD                 
 FORMAT:FORMATTED              ACCESS:SEQUENTIAL          
 ACTION:READ                


 TDIS -- TEMPORAL DISCRETIZATION PACKAGE,
 VERSION 1 : 11/13/2014 - INPUT READ FROM UNIT 1002
 # File generated by Flopy version 3.3.5 on 03/02/2022 at 15:37:06.
 PROCESSING TDIS OPTIONS
    SIMULATION TIME UNIT IS DAYS
 END OF TDIS OPTIONS
 PROCESSING TDIS DIMENSIONS
   25 STRESS PERIOD(S) IN SIMULATION
 END OF TDIS DIMENSIONS
 PROCESSING TDIS PERIODDATA


 STRESS PERIOD     LENGTH       TIME STEPS     MULTIPLIER FOR DELT
 ----------------------------------------------------------------------------
        1         1.000000          1                    1.000
        2         31.00000          1                    1.000
        3         29.00000          1                    1.000
        4         31.00000          1                    1.000
        5         30.00000          1                    1.000
        6         31.00000          1                    1.000
        7         30.00000          1                    1.000
        8         31.00000          1                    1.000
        9         31.00000          1                    1.000
       10         30.00000          1                    1.000
       11         31.00000          1                    1.000
       12         30.00000          1                    1.000
       13         31.00000          1                    1.000
       14         31.00000          1                    1.000
       15         28.00000          1                    1.000
       16         31.00000          1                    1.000
       17         30.00000          1                    1.000
       18         31.00000          1                    1.000
       19         30.00000          1                    1.000
       20         31.00000          1                    1.000
       21         31.00000          1                    1.000
       22         30.00000          1                    1.000
       23         31.00000          1                    1.000
       24         30.00000          1                    1.000
       25         31.00000          1                    1.000
 END OF TDIS PERIODDATA
 END OF SIMULATION TIMING

 READING SIMULATION MODELS
    GWF6 model FREYBERG6 will be created as model 1
 END OF SIMULATION MODELS

 READING SIMULATION EXCHANGES
 END OF SIMULATION EXCHANGES

 READING SOLUTIONGROUP

 Creating solution: SLN_1           

 OPENED freyberg6.ims
 FILE TYPE:IMS   UNIT 1015   STATUS:OLD                 
 FORMAT:FORMATTED              ACCESS:SEQUENTIAL          
 ACTION:READ                

 END OF SIMULATION SOLUTIONGROUP

 IMS -- ITERATIVE MODEL SOLUTION PACKAGE, VERSION 6, 4/28/2017
         INPUT READ FROM UNIT 1015
 # File generated by Flopy version 3.3.5 on 03/02/2022 at 15:37:06.

 PROCESSING IMS OPTIONS
 SIMPLE OPTION:
 DEFAULT SOLVER INPUT VALUES FOR FAST SOLUTIONS
 END OF IMS OPTIONS

 PROCESSING IMS NONLINEAR
 END OF IMS NONLINEAR DATA
 **UNDER-RELAXATION WILL BE USED***
 
 ***IMS LINEAR SOLVER WILL BE USED***

 IMSLINEAR -- UNSTRUCTURED LINEAR SOLUTION PACKAGE, VERSION 8, 04/28/2017

 PROCESSING LINEAR DATA
 END OF LINEAR DATA
 
 OUTER ITERATION CONVERGENCE CRITERION    (DVCLOSE) =    0.100000E-02
 MAXIMUM NUMBER OF OUTER ITERATIONS        (MXITER) = 100
 SOLVER PRINTOUT INDEX                     (IPRIMS) = 1
 NONLINEAR ITERATION METHOD            (NONLINMETH) = 3
 LINEAR SOLUTION METHOD                   (LINMETH) = 1
 UNDER-RELAXATION WEIGHT REDUCTION FACTOR   (THETA) =    0.850000E+00
 UNDER-RELAXATION WEIGHT INCREASE INCREMENT (KAPPA) =    0.100000E-04
 UNDER-RELAXATION PREVIOUS HISTORY FACTOR   (GAMMA) =    0.000000E+00
 UNDER-RELAXATION MOMENTUM TERM         (AMOMENTUM) =    0.100000E+00
 MAXIMUM NUMBER OF BACKTRACKS            (NUMTRACK) = 50
 BACKTRACKING TOLERANCE FACTOR               (BTOL) =    0.110000E+01
 BACKTRACKING REDUCTION FACTOR             (BREDUC) =    0.700000E+00
 BACKTRACKING RESIDUAL LIMIT              (RES_LIM) =    0.100000E+03

       SOLUTION BY THE BICONJUGATE-GRADIENT STABILIZED METHOD
 ------------------------------------------------------------------
 MAXIMUM OF 100 CALLS OF SOLUTION ROUTINE
 MAXIMUM OF 50 INTERNAL ITERATIONS PER CALL TO SOLUTION ROUTINE
 LINEAR ACCELERATION METHOD            = BCGS      
 MATRIX PRECONDITIONING TYPE           = INCOMPLETE LUT      
 MATRIX SCALING APPROACH               = NO SCALING          
 MATRIX REORDERING APPROACH            = RCM ORDERING             
 NUMBER OF ORTHOGONALIZATIONS          = 2
 HEAD CHANGE CRITERION FOR CLOSURE     =    0.10000E-03
 RESIDUAL CHANGE CRITERION FOR CLOSURE =    0.10000E+00
 RESIDUAL CONVERGENCE OPTION           = 0
 RESIDUAL CONVERGENCE NORM             = INFINITY NORM   
 RELAXATION FACTOR                     =    0.00000E+00
 NUMBER OF LEVELS                      =              1
 DROP TOLERANCE                        =    0.10000E-02


1
                            STRESS PERIOD NO.    1, LENGTH =   1.000000    
                            -----------------------------------------------

                              NUMBER OF TIME STEPS =     1

                               MULTIPLIER FOR DELT =     1.000

                            INITIAL TIME STEP SIZE =   1.000000    



 PSEUDO-TRANSIENT CONTINUATION WILL BE APPLIED TO MODEL 1 ("FREYBERG6") DURING THIS TIME STEP

 OUTER ITERATION SUMMARY
 ----------------------------------------------------------------------------------------------------------------------------------------------------------------
                                OUTER      INNER  BACKTRACK  BACKTRACK        INCOMING        OUTGOING                    STEP   MAXIMUM CHANGE MODEL-(CELLID) OR
 OUTER ITERATION STEP       ITERATION  ITERATION       FLAG ITERATIONS        RESIDUAL        RESIDUAL  MAXIMUM CHANGE SUCCESS             MODEL-PACKAGE-(NUMBER)
 ----------------------------------------------------------------------------------------------------------------------------------------------------------------
 Backtracking                       1                     0          0       748718.68       748718.68                       *                                   
 Model                              1         17                                                             467.17542                            1_GWF-(3,40,16)
 Backtracking                       2                     0          0       217149.29       217149.29                       *                                   
 Model                              2         21                                                             579.57388                            1_GWF-(1,40,16)
 Backtracking                       3                     0          0       46812.309       46812.309                       *                                   
 Model                              3         44                                                             212.89033                            1_GWF-(1,40,16)
 Backtracking                       4                     0          0       14088.846       14088.846                       *                                   
 Model                              4         50                                                             29.951061                            1_GWF-(1,40,16)
 Backtracking                       5                     0          0       4371.9633       4371.9633                       *                                   
 Model                              5         50                                                             7.7088075                            1_GWF-(1,39,16)
 Backtracking                       6                     0          0       1155.8205       1155.8205                       *                                   
 Model                              6         50                                                            -1.3465320                            1_GWF-(1,40,16)
 Backtracking                       7                     0          0       765.61299       765.61299                       *                                   
 Model                              7         50                                                           -0.31407876                              1_GWF-(1,1,7)
 Backtracking                       8                     0          0       298.82812       298.82812                       *                                   
 Model                              8         46                                                       -8.77720595E-02                             1_GWF-(2,31,7)
 Backtracking                       9                     0          0       92.725676       92.725676                       *                                   
 Model                              9         12                                                       -2.14865914E-02                             1_GWF-(3,31,7)
 Backtracking                      10                     0          0       21.438098       21.438098                       *                                   
 Model                             10         10                                                       -6.70391702E-03                             1_GWF-(2,31,7)
 Backtracking                      11                     0          0       6.1581208       6.1581208                       *                                   
 Model                             11         10                                                       -3.46863438E-03                             1_GWF-(1,31,8)
 Backtracking                      12                     0          0       3.0634079       3.0634079                       *                                   
 Model                             12          5                                                       -6.63792055E-04       *                     1_GWF-(3,31,7)
 ----------------------------------------------------------------------------------------------------------------------------------------------------------------


 12 CALLS TO NUMERICAL SOLUTION IN TIME STEP 1 STRESS PERIOD 1
 365 TOTAL ITERATIONS
1
                            STRESS PERIOD NO.    2, LENGTH =   31.00000    
                            -----------------------------------------------

                              NUMBER OF TIME STEPS =     1

                               MULTIPLIER FOR DELT =     1.000

                            INITIAL TIME STEP SIZE =   31.00000    

 OUTER ITERATION SUMMARY
 ----------------------------------------------------------------------------------------------------------------------------------------------------------------
                                OUTER      INNER  BACKTRACK  BACKTRACK        INCOMING        OUTGOING                    STEP   MAXIMUM CHANGE MODEL-(CELLID) OR
 OUTER ITERATION STEP       ITERATION  ITERATION       FLAG ITERATIONS        RESIDUAL        RESIDUAL  MAXIMUM CHANGE SUCCESS             MODEL-PACKAGE-(NUMBER)
 ----------------------------------------------------------------------------------------------------------------------------------------------------------------
 Backtracking                       1                     0          0       280.22005       280.22005                       *                                   
 Model                              1         26                                                            0.30870465                             1_GWF-(3,30,7)
 Backtracking                       2                     0          0       6.5798610       6.5798610                       *                                   
 Model                              2         10                                                        5.12159755E-03                            1_GWF-(1,40,16)
 Backtracking                       3                     0          0      0.68201849      0.68201849                       *                                   
 Model                              3          8                                                        2.04414782E-03                             1_GWF-(3,22,1)
 Backtracking                       4                     0          1       1.4995181       1.0694794                                                           
 Model                              4          4                                                        4.64030829E-04       *                    1_GWF-(1,33,20)
 ----------------------------------------------------------------------------------------------------------------------------------------------------------------


 4 CALLS TO NUMERICAL SOLUTION IN TIME STEP 1 STRESS PERIOD 2
 48 TOTAL ITERATIONS
1
                            STRESS PERIOD NO.    3, LENGTH =   29.00000    
                            -----------------------------------------------

                              NUMBER OF TIME STEPS =     1

                               MULTIPLIER FOR DELT =     1.000

                            INITIAL TIME STEP SIZE =   29.00000    

 OUTER ITERATION SUMMARY
 ----------------------------------------------------------------------------------------------------------------------------------------------------------------
                                OUTER      INNER  BACKTRACK  BACKTRACK        INCOMING        OUTGOING                    STEP   MAXIMUM CHANGE MODEL-(CELLID) OR
 OUTER ITERATION STEP       ITERATION  ITERATION       FLAG ITERATIONS        RESIDUAL        RESIDUAL  MAXIMUM CHANGE SUCCESS             MODEL-PACKAGE-(NUMBER)
 ----------------------------------------------------------------------------------------------------------------------------------------------------------------
 Backtracking                       1                     0          0       75.240670       75.240670                       *                                   
 Model                              1         22                                                            0.14299929                             1_GWF-(1,29,7)
 Backtracking                       2                     0          0       4.2702288       4.2702288                       *                                   
 Model                              2          9                                                        3.51573710E-03                            1_GWF-(1,40,16)
 Backtracking                       3                     0          0      0.33819553      0.33819553                       *                                   
 Model                              3          8                                                        1.42499856E-03                             1_GWF-(3,15,3)
 Backtracking                       4                     4          0      0.76493051      0.76493051                       *                                   
 Model                              4          1                                                       -8.25257198E-05       *                    1_GWF-(3,34,19)
 ----------------------------------------------------------------------------------------------------------------------------------------------------------------


 4 CALLS TO NUMERICAL SOLUTION IN TIME STEP 1 STRESS PERIOD 3
 40 TOTAL ITERATIONS
1
                            STRESS PERIOD NO.    4, LENGTH =   31.00000    
                            -----------------------------------------------

                              NUMBER OF TIME STEPS =     1

                               MULTIPLIER FOR DELT =     1.000

                            INITIAL TIME STEP SIZE =   31.00000    

 OUTER ITERATION SUMMARY
 ----------------------------------------------------------------------------------------------------------------------------------------------------------------
                                OUTER      INNER  BACKTRACK  BACKTRACK        INCOMING        OUTGOING                    STEP   MAXIMUM CHANGE MODEL-(CELLID) OR
 OUTER ITERATION STEP       ITERATION  ITERATION       FLAG ITERATIONS        RESIDUAL        RESIDUAL  MAXIMUM CHANGE SUCCESS             MODEL-PACKAGE-(NUMBER)
 ----------------------------------------------------------------------------------------------------------------------------------------------------------------
 Backtracking                       1                     0          0       105.12190       105.12190                       *                                   
 Model                              1         21                                                            0.11007062                             1_GWF-(1,25,1)
 Backtracking                       2                     0          0       2.0040910       2.0040910                       *                                   
 Model                              2          9                                                        1.65656880E-03                            1_GWF-(1,40,16)
 Backtracking                       3                     0          0      0.29478618      0.29478618                       *                                   
 Model                              3          1                                                       -6.80917012E-05       *                    1_GWF-(1,35,13)
 ----------------------------------------------------------------------------------------------------------------------------------------------------------------


 3 CALLS TO NUMERICAL SOLUTION IN TIME STEP 1 STRESS PERIOD 4
 31 TOTAL ITERATIONS
1
                            STRESS PERIOD NO.    5, LENGTH =   30.00000    
                            -----------------------------------------------

                              NUMBER OF TIME STEPS =     1

                               MULTIPLIER FOR DELT =     1.000

                            INITIAL TIME STEP SIZE =   30.00000    

 OUTER ITERATION SUMMARY
 ----------------------------------------------------------------------------------------------------------------------------------------------------------------
                                OUTER      INNER  BACKTRACK  BACKTRACK        INCOMING        OUTGOING                    STEP   MAXIMUM CHANGE MODEL-(CELLID) OR
 OUTER ITERATION STEP       ITERATION  ITERATION       FLAG ITERATIONS        RESIDUAL        RESIDUAL  MAXIMUM CHANGE SUCCESS             MODEL-PACKAGE-(NUMBER)
 ----------------------------------------------------------------------------------------------------------------------------------------------------------------
 Backtracking                       1                     0          0       141.52007       141.52007                       *                                   
 Model                              1         23                                                           -0.10008436                            1_GWF-(3,10,17)
 Backtracking                       2                     0          0       1.2477104       1.2477104                       *                                   
 Model                              2         11                                                        3.94055045E-03                             1_GWF-(3,13,2)
 Backtracking                       3                     0          0      0.49942471      0.49942471                       *                                   
 Model                              3          2                                                       -9.63009340E-05       *                    1_GWF-(1,18,11)
 ----------------------------------------------------------------------------------------------------------------------------------------------------------------


 3 CALLS TO NUMERICAL SOLUTION IN TIME STEP 1 STRESS PERIOD 5
 36 TOTAL ITERATIONS
1
                            STRESS PERIOD NO.    6, LENGTH =   31.00000    
                            -----------------------------------------------

                              NUMBER OF TIME STEPS =     1

                               MULTIPLIER FOR DELT =     1.000

                            INITIAL TIME STEP SIZE =   31.00000    

 OUTER ITERATION SUMMARY
 ----------------------------------------------------------------------------------------------------------------------------------------------------------------
                                OUTER      INNER  BACKTRACK  BACKTRACK        INCOMING        OUTGOING                    STEP   MAXIMUM CHANGE MODEL-(CELLID) OR
 OUTER ITERATION STEP       ITERATION  ITERATION       FLAG ITERATIONS        RESIDUAL        RESIDUAL  MAXIMUM CHANGE SUCCESS             MODEL-PACKAGE-(NUMBER)
 ----------------------------------------------------------------------------------------------------------------------------------------------------------------
 Backtracking                       1                     0          0       152.37331       152.37331                       *                                   
 Model                              1         29                                                           -0.17811026                             1_GWF-(3,30,7)
 Backtracking                       2                     0          0       3.7128970       3.7128970                       *                                   
 Model                              2          9                                                       -3.21348190E-03                            1_GWF-(1,40,16)
 Backtracking                       3                     0          0      0.36707172      0.36707172                       *                                   
 Model                              3          8                                                       -1.35841809E-03                            1_GWF-(2,34,20)
 Backtracking                       4                     4          0      0.78066811      0.78066811                       *                                   
 Model                              4          2                                                       -1.02905962E-04       *                    1_GWF-(2,14,20)
 ----------------------------------------------------------------------------------------------------------------------------------------------------------------


 4 CALLS TO NUMERICAL SOLUTION IN TIME STEP 1 STRESS PERIOD 6
 48 TOTAL ITERATIONS
1
                            STRESS PERIOD NO.    7, LENGTH =   30.00000    
                            -----------------------------------------------

                              NUMBER OF TIME STEPS =     1

                               MULTIPLIER FOR DELT =     1.000

                            INITIAL TIME STEP SIZE =   30.00000    

 OUTER ITERATION SUMMARY
 ----------------------------------------------------------------------------------------------------------------------------------------------------------------
                                OUTER      INNER  BACKTRACK  BACKTRACK        INCOMING        OUTGOING                    STEP   MAXIMUM CHANGE MODEL-(CELLID) OR
 OUTER ITERATION STEP       ITERATION  ITERATION       FLAG ITERATIONS        RESIDUAL        RESIDUAL  MAXIMUM CHANGE SUCCESS             MODEL-PACKAGE-(NUMBER)
 ----------------------------------------------------------------------------------------------------------------------------------------------------------------
 Backtracking                       1                     0          0       132.00027       132.00027                       *                                   
 Model                              1         28                                                           -0.22171425                             1_GWF-(3,30,7)
 Backtracking                       2                     0          0       5.5254065       5.5254065                       *                                   
 Model                              2         10                                                       -4.68842857E-03                            1_GWF-(1,40,16)
 Backtracking                       3                     0          0      0.40456975      0.40456975                       *                                   
 Model                              3          6                                                       -1.69436423E-03                            1_GWF-(2,35,20)
 Backtracking                       4                     0          1      0.62569364      0.45685680                                                           
 Model                              4          2                                                       -1.01048039E-04       *                     1_GWF-(1,36,9)
 ----------------------------------------------------------------------------------------------------------------------------------------------------------------


 4 CALLS TO NUMERICAL SOLUTION IN TIME STEP 1 STRESS PERIOD 7
 46 TOTAL ITERATIONS
1
                            STRESS PERIOD NO.    8, LENGTH =   31.00000    
                            -----------------------------------------------

                              NUMBER OF TIME STEPS =     1

                               MULTIPLIER FOR DELT =     1.000

                            INITIAL TIME STEP SIZE =   31.00000    

 OUTER ITERATION SUMMARY
 ----------------------------------------------------------------------------------------------------------------------------------------------------------------
                                OUTER      INNER  BACKTRACK  BACKTRACK        INCOMING        OUTGOING                    STEP   MAXIMUM CHANGE MODEL-(CELLID) OR
 OUTER ITERATION STEP       ITERATION  ITERATION       FLAG ITERATIONS        RESIDUAL        RESIDUAL  MAXIMUM CHANGE SUCCESS             MODEL-PACKAGE-(NUMBER)
 ----------------------------------------------------------------------------------------------------------------------------------------------------------------
 Backtracking                       1                     0          0       99.325689       99.325689                       *                                   
 Model                              1         25                                                           -0.21709780                             1_GWF-(1,30,7)
 Backtracking                       2                     0          0       6.5003484       6.5003484                       *                                   
 Model                              2         10                                                       -5.55621735E-03                            1_GWF-(1,40,16)
 Backtracking                       3                     0          0      0.51230143      0.51230143                       *                                   
 Model                              3          5                                                       -1.92191870E-03                            1_GWF-(2,35,20)
 Backtracking                       4                     0          1      0.86776508      0.63023426                                                           
 Model                              4          6                                                       -8.27723371E-04       *                     1_GWF-(3,15,3)
 ----------------------------------------------------------------------------------------------------------------------------------------------------------------


 4 CALLS TO NUMERICAL SOLUTION IN TIME STEP 1 STRESS PERIOD 8
 46 TOTAL ITERATIONS
1
                            STRESS PERIOD NO.    9, LENGTH =   31.00000    
                            -----------------------------------------------

                              NUMBER OF TIME STEPS =     1

                               MULTIPLIER FOR DELT =     1.000

                            INITIAL TIME STEP SIZE =   31.00000    

 OUTER ITERATION SUMMARY
 ----------------------------------------------------------------------------------------------------------------------------------------------------------------
                                OUTER      INNER  BACKTRACK  BACKTRACK        INCOMING        OUTGOING                    STEP   MAXIMUM CHANGE MODEL-(CELLID) OR
 OUTER ITERATION STEP       ITERATION  ITERATION       FLAG ITERATIONS        RESIDUAL        RESIDUAL  MAXIMUM CHANGE SUCCESS             MODEL-PACKAGE-(NUMBER)
 ----------------------------------------------------------------------------------------------------------------------------------------------------------------
 Backtracking                       1                     0          0       78.731653       78.731653                       *                                   
 Model                              1         26                                                           -0.17318639                             1_GWF-(1,29,1)
 Backtracking                       2                     0          0       5.7200564       5.7200564                       *                                   
 Model                              2         10                                                       -4.93955980E-03                            1_GWF-(1,40,16)
 Backtracking                       3                     0          0      0.49075820      0.49075820                       *                                   
 Model                              3          5                                                       -1.64208074E-03                            1_GWF-(2,35,20)
 Backtracking                       4                     0          0      0.44879068      0.44879068                       *                                   
 Model                              4          1                                                       -7.29031146E-05       *                    1_GWF-(1,19,11)
 ----------------------------------------------------------------------------------------------------------------------------------------------------------------


 4 CALLS TO NUMERICAL SOLUTION IN TIME STEP 1 STRESS PERIOD 9
 42 TOTAL ITERATIONS
1
                            STRESS PERIOD NO.   10, LENGTH =   30.00000    
                            -----------------------------------------------

                              NUMBER OF TIME STEPS =     1

                               MULTIPLIER FOR DELT =     1.000

                            INITIAL TIME STEP SIZE =   30.00000    

 OUTER ITERATION SUMMARY
 ----------------------------------------------------------------------------------------------------------------------------------------------------------------
                                OUTER      INNER  BACKTRACK  BACKTRACK        INCOMING        OUTGOING                    STEP   MAXIMUM CHANGE MODEL-(CELLID) OR
 OUTER ITERATION STEP       ITERATION  ITERATION       FLAG ITERATIONS        RESIDUAL        RESIDUAL  MAXIMUM CHANGE SUCCESS             MODEL-PACKAGE-(NUMBER)
 ----------------------------------------------------------------------------------------------------------------------------------------------------------------
 Backtracking                       1                     0          0       64.451591       64.451591                       *                                   
 Model                              1         19                                                           -0.12637817                             1_GWF-(1,27,1)
 Backtracking                       2                     0          0       3.2082440       3.2082440                       *                                   
 Model                              2          9                                                       -2.75847813E-03                            1_GWF-(1,40,16)
 Backtracking                       3                     0          0      0.27219369      0.27219369                       *                                   
 Model                              3          1                                                       -8.89482719E-05       *                    1_GWF-(3,35,20)
 ----------------------------------------------------------------------------------------------------------------------------------------------------------------


 3 CALLS TO NUMERICAL SOLUTION IN TIME STEP 1 STRESS PERIOD 10
 29 TOTAL ITERATIONS
1
                            STRESS PERIOD NO.   11, LENGTH =   31.00000    
                            -----------------------------------------------

                              NUMBER OF TIME STEPS =     1

                               MULTIPLIER FOR DELT =     1.000

                            INITIAL TIME STEP SIZE =   31.00000    

 OUTER ITERATION SUMMARY
 ----------------------------------------------------------------------------------------------------------------------------------------------------------------
                                OUTER      INNER  BACKTRACK  BACKTRACK        INCOMING        OUTGOING                    STEP   MAXIMUM CHANGE MODEL-(CELLID) OR
 OUTER ITERATION STEP       ITERATION  ITERATION       FLAG ITERATIONS        RESIDUAL        RESIDUAL  MAXIMUM CHANGE SUCCESS             MODEL-PACKAGE-(NUMBER)
 ----------------------------------------------------------------------------------------------------------------------------------------------------------------
 Backtracking                       1                     0          0       109.38370       109.38370                       *                                   
 Model                              1         23                                                        7.70497850E-02                            1_GWF-(3,10,17)
 Backtracking                       2                     0          0       1.4191044       1.4191044                       *                                   
 Model                              2          9                                                       -3.71343581E-03                             1_GWF-(3,14,2)
 Backtracking                       3                     0          0      0.90629428      0.90629428                       *                                   
 Model                              3          2                                                        1.36238399E-04       *                     1_GWF-(2,32,8)
 ----------------------------------------------------------------------------------------------------------------------------------------------------------------


 3 CALLS TO NUMERICAL SOLUTION IN TIME STEP 1 STRESS PERIOD 11
 34 TOTAL ITERATIONS
1
                            STRESS PERIOD NO.   12, LENGTH =   30.00000    
                            -----------------------------------------------

                              NUMBER OF TIME STEPS =     1

                               MULTIPLIER FOR DELT =     1.000

                            INITIAL TIME STEP SIZE =   30.00000    

 OUTER ITERATION SUMMARY
 ----------------------------------------------------------------------------------------------------------------------------------------------------------------
                                OUTER      INNER  BACKTRACK  BACKTRACK        INCOMING        OUTGOING                    STEP   MAXIMUM CHANGE MODEL-(CELLID) OR
 OUTER ITERATION STEP       ITERATION  ITERATION       FLAG ITERATIONS        RESIDUAL        RESIDUAL  MAXIMUM CHANGE SUCCESS             MODEL-PACKAGE-(NUMBER)
 ----------------------------------------------------------------------------------------------------------------------------------------------------------------
 Backtracking                       1                     0          0       150.12969       150.12969                       *                                   
 Model                              1         33                                                            0.16320407                            1_GWF-(3,27,11)
 Backtracking                       2                     0          0       4.9385301       4.9385301                       *                                   
 Model                              2         10                                                        4.07066860E-03                            1_GWF-(1,40,16)
 Backtracking                       3                     0          0      0.36646442      0.36646442                       *                                   
 Model                              3          6                                                        1.55854632E-03                            1_GWF-(2,35,20)
 Backtracking                       4                     0          1      0.57438190      0.42149634                                                           
 Model                              4          1                                                        9.02504755E-05       *                    1_GWF-(2,27,11)
 ----------------------------------------------------------------------------------------------------------------------------------------------------------------


 4 CALLS TO NUMERICAL SOLUTION IN TIME STEP 1 STRESS PERIOD 12
 50 TOTAL ITERATIONS
1
                            STRESS PERIOD NO.   13, LENGTH =   31.00000    
                            -----------------------------------------------

                              NUMBER OF TIME STEPS =     1

                               MULTIPLIER FOR DELT =     1.000

                            INITIAL TIME STEP SIZE =   31.00000    

 OUTER ITERATION SUMMARY
 ----------------------------------------------------------------------------------------------------------------------------------------------------------------
                                OUTER      INNER  BACKTRACK  BACKTRACK        INCOMING        OUTGOING                    STEP   MAXIMUM CHANGE MODEL-(CELLID) OR
 OUTER ITERATION STEP       ITERATION  ITERATION       FLAG ITERATIONS        RESIDUAL        RESIDUAL  MAXIMUM CHANGE SUCCESS             MODEL-PACKAGE-(NUMBER)
 ----------------------------------------------------------------------------------------------------------------------------------------------------------------
 Backtracking                       1                     0          0       156.79762       156.79762                       *                                   
 Model                              1         26                                                            0.23793131                             1_GWF-(3,30,7)
 Backtracking                       2                     0          0       6.9533829       6.9533829                       *                                   
 Model                              2         10                                                        5.61098237E-03                            1_GWF-(1,40,16)
 Backtracking                       3                     0          0      0.57685574      0.57685574                       *                                   
 Model                              3          9                                                        2.17928051E-03                             1_GWF-(3,18,4)
 Backtracking                       4                     0          1       1.4104339       1.0021191                                                           
 Model                              4          2                                                        2.27765736E-04       *                    1_GWF-(2,27,11)
 ----------------------------------------------------------------------------------------------------------------------------------------------------------------


 4 CALLS TO NUMERICAL SOLUTION IN TIME STEP 1 STRESS PERIOD 13
 47 TOTAL ITERATIONS
1
                            STRESS PERIOD NO.   14, LENGTH =   31.00000    
                            -----------------------------------------------

                              NUMBER OF TIME STEPS =     1

                               MULTIPLIER FOR DELT =     1.000

                            INITIAL TIME STEP SIZE =   31.00000    

 OUTER ITERATION SUMMARY
 ----------------------------------------------------------------------------------------------------------------------------------------------------------------
                                OUTER      INNER  BACKTRACK  BACKTRACK        INCOMING        OUTGOING                    STEP   MAXIMUM CHANGE MODEL-(CELLID) OR
 OUTER ITERATION STEP       ITERATION  ITERATION       FLAG ITERATIONS        RESIDUAL        RESIDUAL  MAXIMUM CHANGE SUCCESS             MODEL-PACKAGE-(NUMBER)
 ----------------------------------------------------------------------------------------------------------------------------------------------------------------
 Backtracking                       1                     0          0       125.98467       125.98467                       *                                   
 Model                              1         26                                                            0.24208729                             1_GWF-(3,30,7)
 Backtracking                       2                     0          0       6.6096740       6.6096740                       *                                   
 Model                              2         10                                                        5.31292222E-03                            1_GWF-(1,40,16)
 Backtracking                       3                     0          0      0.55790524      0.55790524                       *                                   
 Model                              3          9                                                        2.22305237E-03                             1_GWF-(3,18,4)
 Backtracking                       4                     0          1       1.6778829       1.1906270                                                           
 Model                              4         10                                                        7.30616870E-04       *                     1_GWF-(3,15,3)
 ----------------------------------------------------------------------------------------------------------------------------------------------------------------


 4 CALLS TO NUMERICAL SOLUTION IN TIME STEP 1 STRESS PERIOD 14
 55 TOTAL ITERATIONS
1
                            STRESS PERIOD NO.   15, LENGTH =   28.00000    
                            -----------------------------------------------

                              NUMBER OF TIME STEPS =     1

                               MULTIPLIER FOR DELT =     1.000

                            INITIAL TIME STEP SIZE =   28.00000    

 OUTER ITERATION SUMMARY
 ----------------------------------------------------------------------------------------------------------------------------------------------------------------
                                OUTER      INNER  BACKTRACK  BACKTRACK        INCOMING        OUTGOING                    STEP   MAXIMUM CHANGE MODEL-(CELLID) OR
 OUTER ITERATION STEP       ITERATION  ITERATION       FLAG ITERATIONS        RESIDUAL        RESIDUAL  MAXIMUM CHANGE SUCCESS             MODEL-PACKAGE-(NUMBER)
 ----------------------------------------------------------------------------------------------------------------------------------------------------------------
 Backtracking                       1                     0          0       76.285618       76.285618                       *                                   
 Model                              1         23                                                            0.16370668                             1_GWF-(1,30,7)
 Backtracking                       2                     0          0       4.2698483       4.2698483                       *                                   
 Model                              2          9                                                        3.40710803E-03                            1_GWF-(1,40,16)
 Backtracking                       3                     0          0      0.34273054      0.34273054                       *                                   
 Model                              3          8                                                        1.34514017E-03                             1_GWF-(3,15,3)
 Backtracking                       4                     4          0      0.60513994      0.60513994                       *                                   
 Model                              4          1                                                        8.21253255E-05       *                    1_GWF-(3,33,20)
 ----------------------------------------------------------------------------------------------------------------------------------------------------------------


 4 CALLS TO NUMERICAL SOLUTION IN TIME STEP 1 STRESS PERIOD 15
 41 TOTAL ITERATIONS
1
                            STRESS PERIOD NO.   16, LENGTH =   31.00000    
                            -----------------------------------------------

                              NUMBER OF TIME STEPS =     1

                               MULTIPLIER FOR DELT =     1.000

                            INITIAL TIME STEP SIZE =   31.00000    

 OUTER ITERATION SUMMARY
 ----------------------------------------------------------------------------------------------------------------------------------------------------------------
                                OUTER      INNER  BACKTRACK  BACKTRACK        INCOMING        OUTGOING                    STEP   MAXIMUM CHANGE MODEL-(CELLID) OR
 OUTER ITERATION STEP       ITERATION  ITERATION       FLAG ITERATIONS        RESIDUAL        RESIDUAL  MAXIMUM CHANGE SUCCESS             MODEL-PACKAGE-(NUMBER)
 ----------------------------------------------------------------------------------------------------------------------------------------------------------------
 Backtracking                       1                     0          0       73.011869       73.011869                       *                                   
 Model                              1         29                                                            0.11249010                             1_GWF-(1,28,1)
 Backtracking                       2                     0          0       1.7850626       1.7850626                       *                                   
 Model                              2          9                                                        1.49443186E-03                            1_GWF-(1,40,16)
 Backtracking                       3                     0          0      0.13879189      0.13879189                       *                                   
 Model                              3          1                                                        6.92503655E-05       *                    1_GWF-(2,35,20)
 ----------------------------------------------------------------------------------------------------------------------------------------------------------------


 3 CALLS TO NUMERICAL SOLUTION IN TIME STEP 1 STRESS PERIOD 16
 39 TOTAL ITERATIONS
1
                            STRESS PERIOD NO.   17, LENGTH =   30.00000    
                            -----------------------------------------------

                              NUMBER OF TIME STEPS =     1

                               MULTIPLIER FOR DELT =     1.000

                            INITIAL TIME STEP SIZE =   30.00000    

 OUTER ITERATION SUMMARY
 ----------------------------------------------------------------------------------------------------------------------------------------------------------------
                                OUTER      INNER  BACKTRACK  BACKTRACK        INCOMING        OUTGOING                    STEP   MAXIMUM CHANGE MODEL-(CELLID) OR
 OUTER ITERATION STEP       ITERATION  ITERATION       FLAG ITERATIONS        RESIDUAL        RESIDUAL  MAXIMUM CHANGE SUCCESS             MODEL-PACKAGE-(NUMBER)
 ----------------------------------------------------------------------------------------------------------------------------------------------------------------
 Backtracking                       1                     0          0       121.56098       121.56098                       *                                   
 Model                              1         19                                                       -9.30965564E-02                            1_GWF-(3,10,17)
 Backtracking                       2                     0          0       1.5986472       1.5986472                       *                                   
 Model                              2         12                                                        4.54846582E-03                             1_GWF-(3,15,3)
 Backtracking                       3                     0          0       1.2159624       1.2159624                       *                                   
 Model                              3          4                                                       -5.72952100E-04       *                     1_GWF-(1,19,9)
 ----------------------------------------------------------------------------------------------------------------------------------------------------------------


 3 CALLS TO NUMERICAL SOLUTION IN TIME STEP 1 STRESS PERIOD 17
 35 TOTAL ITERATIONS
1
                            STRESS PERIOD NO.   18, LENGTH =   31.00000    
                            -----------------------------------------------

                              NUMBER OF TIME STEPS =     1

                               MULTIPLIER FOR DELT =     1.000

                            INITIAL TIME STEP SIZE =   31.00000    

 OUTER ITERATION SUMMARY
 ----------------------------------------------------------------------------------------------------------------------------------------------------------------
                                OUTER      INNER  BACKTRACK  BACKTRACK        INCOMING        OUTGOING                    STEP   MAXIMUM CHANGE MODEL-(CELLID) OR
 OUTER ITERATION STEP       ITERATION  ITERATION       FLAG ITERATIONS        RESIDUAL        RESIDUAL  MAXIMUM CHANGE SUCCESS             MODEL-PACKAGE-(NUMBER)
 ----------------------------------------------------------------------------------------------------------------------------------------------------------------
 Backtracking                       1                     0          0       155.13094       155.13094                       *                                   
 Model                              1         30                                                           -0.18326053                             1_GWF-(3,30,7)
 Backtracking                       2                     0          0       4.1164143       4.1164143                       *                                   
 Model                              2          9                                                       -3.52021202E-03                            1_GWF-(1,40,16)
 Backtracking                       3                     0          0      0.41514914      0.41514914                       *                                   
 Model                              3          6                                                       -1.28611834E-03                            1_GWF-(2,35,20)
 Backtracking                       4                     4          0      0.63318685      0.63318685                       *                                   
 Model                              4          2                                                       -1.17637660E-04       *                    1_GWF-(1,34,10)
 ----------------------------------------------------------------------------------------------------------------------------------------------------------------


 4 CALLS TO NUMERICAL SOLUTION IN TIME STEP 1 STRESS PERIOD 18
 47 TOTAL ITERATIONS
1
                            STRESS PERIOD NO.   19, LENGTH =   30.00000    
                            -----------------------------------------------

                              NUMBER OF TIME STEPS =     1

                               MULTIPLIER FOR DELT =     1.000

                            INITIAL TIME STEP SIZE =   30.00000    

 OUTER ITERATION SUMMARY
 ----------------------------------------------------------------------------------------------------------------------------------------------------------------
                                OUTER      INNER  BACKTRACK  BACKTRACK        INCOMING        OUTGOING                    STEP   MAXIMUM CHANGE MODEL-(CELLID) OR
 OUTER ITERATION STEP       ITERATION  ITERATION       FLAG ITERATIONS        RESIDUAL        RESIDUAL  MAXIMUM CHANGE SUCCESS             MODEL-PACKAGE-(NUMBER)
 ----------------------------------------------------------------------------------------------------------------------------------------------------------------
 Backtracking                       1                     0          0       151.98609       151.98609                       *                                   
 Model                              1         30                                                           -0.23827128                             1_GWF-(3,30,7)
 Backtracking                       2                     0          0       5.8772484       5.8772484                       *                                   
 Model                              2         10                                                       -4.96129500E-03                            1_GWF-(1,40,16)
 Backtracking                       3                     0          0      0.46054722      0.46054722                       *                                   
 Model                              3          5                                                       -1.90441152E-03                            1_GWF-(2,35,20)
 Backtracking                       4                     0          0      0.33590410      0.33590410                       *                                   
 Model                              4          1                                                       -8.56337271E-05       *                     1_GWF-(1,13,9)
 ----------------------------------------------------------------------------------------------------------------------------------------------------------------


 4 CALLS TO NUMERICAL SOLUTION IN TIME STEP 1 STRESS PERIOD 19
 46 TOTAL ITERATIONS
1
                            STRESS PERIOD NO.   20, LENGTH =   31.00000    
                            -----------------------------------------------

                              NUMBER OF TIME STEPS =     1

                               MULTIPLIER FOR DELT =     1.000

                            INITIAL TIME STEP SIZE =   31.00000    

 OUTER ITERATION SUMMARY
 ----------------------------------------------------------------------------------------------------------------------------------------------------------------
                                OUTER      INNER  BACKTRACK  BACKTRACK        INCOMING        OUTGOING                    STEP   MAXIMUM CHANGE MODEL-(CELLID) OR
 OUTER ITERATION STEP       ITERATION  ITERATION       FLAG ITERATIONS        RESIDUAL        RESIDUAL  MAXIMUM CHANGE SUCCESS             MODEL-PACKAGE-(NUMBER)
 ----------------------------------------------------------------------------------------------------------------------------------------------------------------
 Backtracking                       1                     0          0       114.02747       114.02747                       *                                   
 Model                              1         28                                                           -0.23167181                             1_GWF-(3,30,7)
 Backtracking                       2                     0          0       6.6201265       6.6201265                       *                                   
 Model                              2         10                                                       -5.64438204E-03                            1_GWF-(1,40,16)
 Backtracking                       3                     0          0      0.54442513      0.54442513                       *                                   
 Model                              3          9                                                       -2.28962717E-03                            1_GWF-(2,34,20)
 Backtracking                       4                     0          1       1.0112435      0.72535299                                                           
 Model                              4          1                                                        8.51791484E-05       *                    1_GWF-(3,34,10)
 ----------------------------------------------------------------------------------------------------------------------------------------------------------------


 4 CALLS TO NUMERICAL SOLUTION IN TIME STEP 1 STRESS PERIOD 20
 48 TOTAL ITERATIONS
1
                            STRESS PERIOD NO.   21, LENGTH =   31.00000    
                            -----------------------------------------------

                              NUMBER OF TIME STEPS =     1

                               MULTIPLIER FOR DELT =     1.000

                            INITIAL TIME STEP SIZE =   31.00000    

 OUTER ITERATION SUMMARY
 ----------------------------------------------------------------------------------------------------------------------------------------------------------------
                                OUTER      INNER  BACKTRACK  BACKTRACK        INCOMING        OUTGOING                    STEP   MAXIMUM CHANGE MODEL-(CELLID) OR
 OUTER ITERATION STEP       ITERATION  ITERATION       FLAG ITERATIONS        RESIDUAL        RESIDUAL  MAXIMUM CHANGE SUCCESS             MODEL-PACKAGE-(NUMBER)
 ----------------------------------------------------------------------------------------------------------------------------------------------------------------
 Backtracking                       1                     0          0       67.670116       67.670116                       *                                   
 Model                              1         23                                                           -0.15529050                             1_GWF-(1,30,7)
 Backtracking                       2                     0          0       5.1618894       5.1618894                       *                                   
 Model                              2         10                                                       -4.40207289E-03                            1_GWF-(1,40,16)
 Backtracking                       3                     0          0      0.43117440      0.43117440                       *                                   
 Model                              3          8                                                       -1.80095561E-03                            1_GWF-(2,35,20)
 Backtracking                       4                     0          1       1.5364013       1.0849001                                                           
 Model                              4          2                                                       -2.86702358E-04       *                    1_GWF-(1,30,20)
 ----------------------------------------------------------------------------------------------------------------------------------------------------------------


 4 CALLS TO NUMERICAL SOLUTION IN TIME STEP 1 STRESS PERIOD 21
 43 TOTAL ITERATIONS
1
                            STRESS PERIOD NO.   22, LENGTH =   30.00000    
                            -----------------------------------------------

                              NUMBER OF TIME STEPS =     1

                               MULTIPLIER FOR DELT =     1.000

                            INITIAL TIME STEP SIZE =   30.00000    

 OUTER ITERATION SUMMARY
 ----------------------------------------------------------------------------------------------------------------------------------------------------------------
                                OUTER      INNER  BACKTRACK  BACKTRACK        INCOMING        OUTGOING                    STEP   MAXIMUM CHANGE MODEL-(CELLID) OR
 OUTER ITERATION STEP       ITERATION  ITERATION       FLAG ITERATIONS        RESIDUAL        RESIDUAL  MAXIMUM CHANGE SUCCESS             MODEL-PACKAGE-(NUMBER)
 ----------------------------------------------------------------------------------------------------------------------------------------------------------------
 Backtracking                       1                     0          0       83.705377       83.705377                       *                                   
 Model                              1         21                                                       -9.21464908E-02                             1_GWF-(1,26,1)
 Backtracking                       2                     0          0       1.4184292       1.4184292                       *                                   
 Model                              2          9                                                       -1.66784145E-03                            1_GWF-(1,37,16)
 Backtracking                       3                     0          0      0.37479601      0.37479601                       *                                   
 Model                              3          5                                                       -3.90409235E-04       *                    1_GWF-(1,33,20)
 ----------------------------------------------------------------------------------------------------------------------------------------------------------------


 3 CALLS TO NUMERICAL SOLUTION IN TIME STEP 1 STRESS PERIOD 22
 35 TOTAL ITERATIONS
1
                            STRESS PERIOD NO.   23, LENGTH =   31.00000    
                            -----------------------------------------------

                              NUMBER OF TIME STEPS =     1

                               MULTIPLIER FOR DELT =     1.000

                            INITIAL TIME STEP SIZE =   31.00000    

 OUTER ITERATION SUMMARY
 ----------------------------------------------------------------------------------------------------------------------------------------------------------------
                                OUTER      INNER  BACKTRACK  BACKTRACK        INCOMING        OUTGOING                    STEP   MAXIMUM CHANGE MODEL-(CELLID) OR
 OUTER ITERATION STEP       ITERATION  ITERATION       FLAG ITERATIONS        RESIDUAL        RESIDUAL  MAXIMUM CHANGE SUCCESS             MODEL-PACKAGE-(NUMBER)
 ----------------------------------------------------------------------------------------------------------------------------------------------------------------
 Backtracking                       1                     0          0       132.81760       132.81760                       *                                   
 Model                              1         26                                                            0.11725371                            1_GWF-(3,10,17)
 Backtracking                       2                     0          0       3.1416751       3.1416751                       *                                   
 Model                              2          9                                                        2.69308160E-03                            1_GWF-(1,40,16)
 Backtracking                       3                     0          0      0.57057609      0.57057609                       *                                   
 Model                              3          6                                                        8.52545175E-04       *                    1_GWF-(1,33,20)
 ----------------------------------------------------------------------------------------------------------------------------------------------------------------


 3 CALLS TO NUMERICAL SOLUTION IN TIME STEP 1 STRESS PERIOD 23
 41 TOTAL ITERATIONS
1
                            STRESS PERIOD NO.   24, LENGTH =   30.00000    
                            -----------------------------------------------

                              NUMBER OF TIME STEPS =     1

                               MULTIPLIER FOR DELT =     1.000

                            INITIAL TIME STEP SIZE =   30.00000    

 OUTER ITERATION SUMMARY
 ----------------------------------------------------------------------------------------------------------------------------------------------------------------
                                OUTER      INNER  BACKTRACK  BACKTRACK        INCOMING        OUTGOING                    STEP   MAXIMUM CHANGE MODEL-(CELLID) OR
 OUTER ITERATION STEP       ITERATION  ITERATION       FLAG ITERATIONS        RESIDUAL        RESIDUAL  MAXIMUM CHANGE SUCCESS             MODEL-PACKAGE-(NUMBER)
 ----------------------------------------------------------------------------------------------------------------------------------------------------------------
 Backtracking                       1                     0          0       158.07034       158.07034                       *                                   
 Model                              1         37                                                            0.20432109                             1_GWF-(3,30,7)
 Backtracking                       2                     0          0       6.0262329       6.0262329                       *                                   
 Model                              2         10                                                        4.92839548E-03                            1_GWF-(1,40,16)
 Backtracking                       3                     0          0      0.47748638      0.47748638                       *                                   
 Model                              3          9                                                        2.08956157E-03                            1_GWF-(2,34,20)
 Backtracking                       4                     0          1      0.95355581      0.68282729                                                           
 Model                              4          1                                                       -8.21225617E-05       *                     1_GWF-(1,26,9)
 ----------------------------------------------------------------------------------------------------------------------------------------------------------------


 4 CALLS TO NUMERICAL SOLUTION IN TIME STEP 1 STRESS PERIOD 24
 57 TOTAL ITERATIONS
1
                            STRESS PERIOD NO.   25, LENGTH =   31.00000    
                            -----------------------------------------------

                              NUMBER OF TIME STEPS =     1

                               MULTIPLIER FOR DELT =     1.000

                            INITIAL TIME STEP SIZE =   31.00000    

 OUTER ITERATION SUMMARY
 ----------------------------------------------------------------------------------------------------------------------------------------------------------------
                                OUTER      INNER  BACKTRACK  BACKTRACK        INCOMING        OUTGOING                    STEP   MAXIMUM CHANGE MODEL-(CELLID) OR
 OUTER ITERATION STEP       ITERATION  ITERATION       FLAG ITERATIONS        RESIDUAL        RESIDUAL  MAXIMUM CHANGE SUCCESS             MODEL-PACKAGE-(NUMBER)
 ----------------------------------------------------------------------------------------------------------------------------------------------------------------
 Backtracking                       1                     0          0       145.48941       145.48941                       *                                   
 Model                              1         28                                                            0.24887110                             1_GWF-(3,30,7)
 Backtracking                       2                     0          0       6.9597911       6.9597911                       *                                   
 Model                              2         10                                                        5.54302018E-03                            1_GWF-(1,40,16)
 Backtracking                       3                     0          0      0.53534805      0.53534805                       *                                   
 Model                              3          8                                                        2.32505501E-03                            1_GWF-(2,34,20)
 Backtracking                       4                     0          1       1.1626187      0.83139608                                                           
 Model                              4          4                                                        2.83535910E-04       *                    1_GWF-(2,28,11)
 ----------------------------------------------------------------------------------------------------------------------------------------------------------------


 4 CALLS TO NUMERICAL SOLUTION IN TIME STEP 1 STRESS PERIOD 25
 50 TOTAL ITERATIONS

 MEMORY MANAGER TOTAL STORAGE BY DATA TYPE, IN MEGABYTES
 -------------------------------
                    ALLOCATED   
 DATA TYPE           MEMORY     
 -------------------------------
 Character        5.73300000E-03
 Logical          4.40000000E-05
 Integer          0.60085600    
 Real             1.1713840     
 -------------------------------
 Total            1.7780170     
 -------------------------------


 
 Run end date and time (yyyy/mm/dd hh:mm:ss): 2022/03/02 15:37:06
 Elapsed run time:  0.394 Seconds
 Normal termination of simulation.
